data_stdin
_audit_creation_method 'critic2'
_audit_creation_date 2023-8-11
_chemical_formula_sum 'C26 H16'
_cell_formula_units_Z 2
_cell_length_a        11.7367064048
_cell_length_b         7.1089654500
_cell_length_c        10.5841647853
_cell_angle_alpha        90.0000
_cell_angle_beta        70.3300
_cell_angle_gamma        90.0001
_cell_volume           831.567235
_space_group_crystal_system monoclinic
_space_group_IT_number 4
_space_group_name_H-M_alt 'P2_1'
_space_group_name_Hall 'P 2yb'
loop_
_symmetry_equiv_pos_site_id
_symmetry_equiv_pos_as_xyz
 1 'x,y,z'
 2 '-x,-1/2+y,-z'
loop_
_atom_site_label
_atom_site_type_symbol
_atom_site_fract_x
_atom_site_fract_y
_atom_site_fract_z
C1    C     0.18981863988054 0.95424530003621 0.24523408019509 
C2    C     0.17414302955965 0.13240552039335 0.30907209027514 
C3    C     0.20094796967474 0.16828004004103 0.43150849988394 
C4    C     0.26129666980325 0.03576945004007 0.49148117960191 
C5    C     0.35099456991603 0.89928037027692 0.41996024981172 
C6    C     0.15474224023186 0.92116027944986 0.13485177963577 
C7    C     0.11720753009666 0.27691906016699 0.25680738006781 
C8    C     0.15105275974929 0.33350550068726 0.50535214003548 
C9    C     0.22885496011421 0.03899388052833 0.63420009961054 
C10   C     0.43719655975442 0.92921007991409 0.28613587037900 
C11   C     0.36465919997799 0.73450523043158 0.48994623988188 
C12   C     0.10157874952559 0.06530887985592 0.08229549031020 
C13   C     0.08351594985147 0.24010637934258 0.14267880028698 
C14   C     0.08827552014873 0.45366967049061 0.32406857983190 
C15   C     0.10200391969714 0.47878851931654 0.44589107025031 
C16   C     0.14338083026031 0.35115181005537 0.64187729980585 
C17   C     0.17310600027926 0.20230704940270 0.70657996011964 
C18   C     0.51396390012386 0.77706992958583 0.21971646985807 
C19   C     0.25328894007792 0.87945840954496 0.70220447958301 
C20   C     0.45725351031921 0.10685462040590 0.22184661032309 
C21   C     0.31087029949098 0.72517323019118 0.63206135033820 
C22   C     0.43731710974063 0.58214174067553 0.41834002010678 
C23   C     0.50532203050482 0.60026157998785 0.28603383951450 
C24   C     0.54603672996962 0.13228654026108 0.09804202007565 
C25   C     0.60192012032004 0.80543404998510 0.09155925038722 
C26   C     0.61796089976988 0.98019033973122 0.03094391033580 
H1    H     0.22666912999486 0.83842276053633 0.28607226989399 
H2    H     0.16664597969181 0.78142452971253 0.08999399963653 
H3    H     0.07235234995238 0.03804804034654 0.99671103994162 
H4    H     0.04023845980976 0.35234332032500 0.10522127021328 
H5    H     0.04813113009167 0.56380616985156 0.28116559980241 
H6    H     0.07282317035072 0.60879460019843 0.50190321961010 
H7    H     0.10558404961000 0.47970478950441 0.69533191003841 
H8    H     0.15815690992783 0.20893737017543 0.81377185014829 
H9    H     0.22400832012318 0.88149234953715 0.81141183044058 
H10   H     0.40410200974508 0.22723610997797 0.27190885021781 
H11   H     0.32487786021797 0.59941088066949 0.68364832998721 
H12   H     0.43869993980882 0.45222827032115 0.47239343994221 
H13   H     0.56002347045658 0.48360545997597 0.23185808984131 
H14   H     0.55977119036275 0.27099101009197 0.05184274971062 
H15   H     0.65776183972243 0.68691809951006 0.04150208015627 
H16   H     0.68548542017727 0.99956837042864 0.93192094959116 
