data_stdin
_audit_creation_method 'critic2'
_audit_creation_date 2023-8-11
_chemical_formula_sum 'C26 H16'
_cell_formula_units_Z 4
_cell_length_a         9.1259482741
_cell_length_b        13.8784196015
_cell_length_c        17.4486811493
_cell_angle_alpha        89.9996
_cell_angle_beta        90.0020
_cell_angle_gamma       131.0593
_cell_volume          1666.362590
_space_group_crystal_system monoclinic
_space_group_IT_number 14
_space_group_name_H-M_alt 'P2_1/c'
_space_group_name_Hall '-P 2ybc'
loop_
_symmetry_equiv_pos_site_id
_symmetry_equiv_pos_as_xyz
 1 'x,y,z'
 2 '-x,-y,-z'
 3 '-x,-1/2-y,-1/2+z'
 4 'x,-1/2+y,-1/2-z'
loop_
_atom_site_label
_atom_site_type_symbol
_atom_site_fract_x
_atom_site_fract_y
_atom_site_fract_z
C1    C     0.99926176040597 0.17124142030124 0.17087223014245 
C2    C     0.65709624021319 0.32857108001911 0.17089279003850 
C3    C     0.01853503040802 0.12041557989054 0.10571657975859 
C4    C     0.77803742931093 0.37947798976565 0.10577736977328 
C5    C     0.85496519052813 0.02503768046132 0.06421342014204 
C6    C     0.80501947051201 0.47486334032519 0.06427861027530 
C7    C     0.64599577982340 0.02141303028430 0.15573664973408 
C8    C     0.60304742000534 0.47834227012287 0.15574107011805 
C9    C     0.66793678946680 0.97586020000937 0.08679896994723 
C10   C     0.71614079037264 0.52398496999089 0.08684148986161 
C11   C     0.50348401952537 0.88720431960978 0.03895648981335 
C12   C     0.72891771969574 0.61270832968877 0.03901994001774 
C13   C     0.32900259994678 0.85375598001339 0.05522908990290 
C14   C     0.62120734944488 0.64612808970928 0.05526668995159 
C15   C     0.45356792973095 0.97085617968735 0.17819256019290 
C16   C     0.51158034011960 0.52887710974923 0.17818399002991 
C17   C     0.30267079005016 0.89918767974037 0.12266897997890 
C18   C     0.50395751080955 0.60059949046449 0.12266750001721 
C19   C     0.12929995018969 0.87904745992941 0.13176678990305 
C20   C     0.37081910973048 0.62073736993625 0.13174716994164 
C21   C     0.11262815983308 0.93672046025370 0.19039759027510 
C22   C     0.23890998973765 0.56307676953204 0.19036947015174 
C23   C     0.41029342992039 0.99987247986188 0.25000622011540 
C24   C     0.25354134008578 0.99989604978163 0.25000592007681 
C25   C     0.57276292950814 0.87732588997581 0.30478594012371 
C26   C     0.81757185016871 0.62241752028889 0.30476141985259 
H1    H     0.12785388944143 0.25024939988608 0.20200743010145 
H2    H     0.62786010000313 0.24956233028410 0.20202204983774 
H3    H     0.16216634931796 0.15789144961195 0.08819984981446 
H4    H     0.84691321070093 0.34206591026032 0.08828952983597 
H5    H     0.86719099984087 0.98831613982653 0.01170553012779 
H6    H     0.89071036996833 0.51165632011863 0.01179814973385 
H7    H     0.52241954003958 0.85340366004816 0.98667734019383 
H8    H     0.81551628988849 0.64658075017600 0.98677622975005 
H9    H     0.20712428031951 0.79462647007375 0.01576300998966 
H10   H     0.61754479998220 0.70531227999759 0.01581350992021 
H11   H     0.01572476038116 0.82366058988726 0.08878344019029 
H12   H     0.36794731029180 0.67614113986248 0.08875938007152 
H13   H     0.98954796010639 0.93278061956605 0.19343289000431 
H14   H     0.12373464960183 0.56704945977848 0.19339521019597 
H15   H     0.47853456027604 0.83482892992581 0.25488712002661 
H16   H     0.80821763978624 0.66483944027440 0.25482482017840 
