data_stdin
_audit_creation_method 'critic2'
_audit_creation_date 2023-8-11
_chemical_formula_sum 'C26 H16'
_cell_formula_units_Z 2
_cell_length_a        11.4434360902
_cell_length_b         7.3413950625
_cell_length_c        10.5632537581
_cell_angle_alpha        76.6112
_cell_angle_beta        90.7847
_cell_angle_gamma        72.2114
_cell_volume           818.611072
_space_group_crystal_system triclinic
_space_group_IT_number 2
_space_group_name_H-M_alt 'P-1'
_space_group_name_Hall '-P 1'
loop_
_symmetry_equiv_pos_site_id
_symmetry_equiv_pos_as_xyz
 1 'x,y,z'
 2 '-x,-y,-z'
loop_
_atom_site_label
_atom_site_type_symbol
_atom_site_fract_x
_atom_site_fract_y
_atom_site_fract_z
C1    C     0.95070859021247 0.24479109011634 0.25975761989391 
C2    C     0.92174686990087 0.44917106039851 0.20162304017207 
C3    C     0.83176240975240 0.55249692997400 0.08977392972453 
C4    C     0.74108440960880 0.47548176033424 0.04437881990051 
C5    C     0.69039363003721 0.33387146974836 0.12382731017694 
C6    C     0.03574722004564 0.15213538935231 0.36753241039744 
C7    C     0.99114716009371 0.55353296055450 0.25188188006677 
C8    C     0.83911304014330 0.73613352051846 0.01530740967543 
C9    C     0.69595009959281 0.54758045067145 0.90933044967015 
C10   C     0.67705141983042 0.31156816049578 0.26264779958283 
C11   C     0.63802408011924 0.22242086058226 0.06009433965331 
C12   C     0.09359606018999 0.26096731032169 0.42510130986754 
C13   C     0.07276543041321 0.45802835003630 0.36627084008748 
C14   C     0.98058214991704 0.75066724987676 0.18380101012976 
C15   C     0.91123126959359 0.83493465010796 0.06670450014436 
C16   C     0.77704569997084 0.82062971980710 0.88779621040287 
C17   C     0.71476182980222 0.72158903018399 0.83339829049619 
C18   C     0.64118617010233 0.14938826008503 0.33452263048633 
C19   C     0.63156991979302 0.44620616991577 0.85048445044929 
C20   C     0.68676841981257 0.45357160992385 0.32947503966568 
C21   C     0.61195043021120 0.27909630959480 0.92194885988750 
C22   C     0.60652500974400 0.05828594004535 0.13499372974225 
C23   C     0.61298019974405 0.01729419987290 0.26805592987339 
C24   C     0.66892215956908 0.43217505994900 0.46062556956699 
C25   C     0.62795311956508 0.12708566048023 0.46987182008513 
C26   C     0.64244611967266 0.26479499994895 0.53294929018604 
H1    H     0.90637689036173 0.15831389992631 0.21763533028721 
H2    H     0.05817616998864 0.99391047952177 0.40869978047731 
H3    H     0.15589837011881 0.18861554011918 0.51359993036352 
H4    H     0.11958505030558 0.54350714961443 0.40668570973110 
H5    H     0.03357329970298 0.82808538951857 0.22411545979209 
H6    H     0.90736747013190 0.98139972073408 0.01044827984378 
H7    H     0.78669324993552 0.95900343019494 0.83212748001930 
H8    H     0.67633792017424 0.77575696968834 0.73191976951910 
H9    H     0.59935453949475 0.50388950045125 0.74716409034205 
H10   H     0.70674114987153 0.58421238028309 0.27581371967807 
H11   H     0.56878555008511 0.19443346048250 0.87607487974215 
H12   H     0.57764968025680 0.96580352010445 0.08241435037743 
H13   H     0.58959122952194 0.89095577016809 0.32461390961502 
H14   H     0.67435573954649 0.54667749033787 0.50796464953525 
H15   H     0.60364329005655 0.99970837999275 0.52310941960761 
H16   H     0.63089202017673 0.24655586002771 0.63674563018300 
