data_stdin
_audit_creation_method 'critic2'
_audit_creation_date 2023-8-11
_chemical_formula_sum 'C26 H16'
_cell_formula_units_Z 8
_cell_length_a         9.0772158120
_cell_length_b        17.1357752805
_cell_length_c        21.9383813178
_cell_angle_alpha        89.9995
_cell_angle_beta        90.0128
_cell_angle_gamma        90.0003
_cell_volume          3412.408296
_space_group_crystal_system monoclinic
_space_group_IT_number 14
_space_group_name_H-M_alt 'P2_1/c'
_space_group_name_Hall '-P 2ybc'
loop_
_symmetry_equiv_pos_site_id
_symmetry_equiv_pos_as_xyz
 1 'x,y,z'
 2 '-x,-y,-z'
 3 '-x,-1/2+y,-1/2-z'
 4 'x,-1/2-y,-1/2+z'
loop_
_atom_site_label
_atom_site_type_symbol
_atom_site_fract_x
_atom_site_fract_y
_atom_site_fract_z
C1    C     0.07421502137720 0.94940461521976 0.80989877719894 
C2    C     0.57421952659221 0.55060537407114 0.19012199986195 
C3    C     0.12752471367144 0.90676881902885 0.86067936904950 
C4    C     0.62745297603847 0.59324792997807 0.13934118405682 
C5    C     0.26891980062667 0.92200121249906 0.88952781898392 
C6    C     0.76881112381807 0.57802272936713 0.11048796535076 
C7    C     0.35761422211467 0.99071969247776 0.87808855870467 
C8    C     0.85751841855644 0.50929239479883 0.12191893154885 
C9    C     0.30281668084770 0.06611958090738 0.85877097038874 
C10   C     0.80274358928586 0.43389636079367 0.14122595929173 
C11   C     0.93938008334197 0.93305948053549 0.78345624386535 
C12   C     0.43941344034216 0.56693941166796 0.21656804706824 
C13   C     0.04104060808156 0.84185305347140 0.88091918568420 
C14   C     0.54093195493272 0.65815871865514 0.11910534985844 
C15   C     0.32994468018630 0.86183654290699 0.92658033096579 
C16   C     0.82978785966030 0.63819329131276 0.07343993980111 
C17   C     0.51347565748801 0.98340628697066 0.88532023899790 
C18   C     0.01337004681909 0.51662194023557 0.11468640835814 
C19   C     0.15969508481902 0.09703250527294 0.87541924231267 
C20   C     0.65959943883784 0.40298500833471 0.12457731772587 
C21   C     0.39966833388649 0.11601350168147 0.82584439851444 
C22   C     0.89963997266972 0.38399648405670 0.17414261101737 
C23   C     0.84962068176475 0.87305380735823 0.80681186362530 
C24   C     0.34961167617658 0.62693936864334 0.19321533425843 
C25   C     0.90147357825801 0.82768117932504 0.85423387110378 
C26   C     0.40139442736044 0.67231891281489 0.14579359015138 
C27   C     0.10026518989513 0.78871575866801 0.92454828399092 
C28   C     0.60009698683357 0.71130235930402 0.07547703155818 
C29   C     0.24198244889030 0.79652763736961 0.94432026281705 
C30   C     0.74179433026683 0.70350053060470 0.05570580972265 
C31   C     0.48129722875017 0.86455821855937 0.94359824001640 
C32   C     0.98111872908491 0.63547794813545 0.05641893377438 
C33   C     0.57230835880131 0.92054300752356 0.92001586052977 
C34   C     0.07216049253883 0.57949165362315 0.07999722977077 
C35   C     0.10784829484239 0.16691038017257 0.84691112833970 
C36   C     0.60780721206539 0.33309056389849 0.15306925434966 
C37   C     0.60920486595808 0.03819066210849 0.85687938046795 
C38   C     0.10913708051248 0.46183441496111 0.14312099307104 
C39   C     0.07259350457861 0.06451197673615 0.92256565916357 
C40   C     0.57241121253332 0.43552428513984 0.07744926228375 
C41   C     0.55320122219605 0.09899592875699 0.82367891815395 
C42   C     0.05317444984442 0.40101994586303 0.17631133304981 
C43   C     0.34382624645352 0.18504643255173 0.79756048212302 
C44   C     0.84384579120566 0.31495205146606 0.20241366179365 
C45   C     0.20124540178107 0.20809137456590 0.80569051589984 
C46   C     0.70126167872318 0.29189962430115 0.19427831869622 
C47   C     0.93849448607236 0.09650892064734 0.93862599872625 
C48   C     0.43829302684345 0.40352628103201 0.06139105732003 
C49   C     0.96800224511820 0.19721850804874 0.86289882537537 
C50   C     0.46794651562535 0.30277738896840 0.13708088371476 
C51   C     0.88401549637075 0.16247702227135 0.90770168881650 
C52   C     0.38388135753474 0.33753570533319 0.09229587958346 
H1    H     0.14078859371597 0.99563360979827 0.79029466084933 
H2    H     0.64083270401841 0.50438032557516 0.20972100708491 
H3    H     0.90335611225873 0.96686722344752 0.74421527108683 
H4    H     0.40344665191733 0.53312648087102 0.25580848632750 
H5    H     0.74152058512440 0.86234981782689 0.78689371582797 
H6    H     0.24153205720748 0.63763421440655 0.21313497790484 
H7    H     0.83702344448499 0.77857051313509 0.87100920615011 
H8    H     0.33691017611091 0.72142505982558 0.12902104920004 
H9    H     0.03394711979487 0.73862232872371 0.93800112577044 
H10   H     0.53375419554947 0.76139270103563 0.06202568650911 
H11   H     0.29213076653315 0.75198541827221 0.97309629991123 
H12   H     0.79190030823691 0.74804874731250 0.02693241580241 
H13   H     0.52511439244153 0.81776039486514 0.97179961258942 
H14   H     0.02489880224765 0.68228050728485 0.02822055128845 
H15   H     0.69080718287197 0.91850041304228 0.92768966644187 
H16   H     0.19065134470612 0.58153723495283 0.07232465098021 
H17   H     0.72762137927446 0.02907232950065 0.86018837370717 
H18   H     0.22754961365099 0.47095628880266 0.13981533497119 
H19   H     0.11363090050031 0.01414514121737 0.94729848062862 
H20   H     0.61338593931278 0.48591044312936 0.05273054072160 
H21   H     0.62584743702235 0.13754060430214 0.79810155833098 
H22   H     0.12585297237816 0.36247181131388 0.20188313455224 
H23   H     0.41947141552484 0.22008090676717 0.77054057851994 
H24   H     0.91953119145739 0.27991474087517 0.22942610125966 
H25   H     0.16018544743978 0.26125804372356 0.78437435091230 
H26   H     0.66023750474512 0.23872261678751 0.21558286875951 
H27   H     0.87450785384812 0.07131977810512 0.97565962537021 
H28   H     0.37423453068893 0.42873458809059 0.02437443003028 
H29   H     0.93073330946695 0.25059575011055 0.84074832045880 
H30   H     0.43072719312083 0.24938590729461 0.15921802187388 
H31   H     0.77736280060456 0.18635492265204 0.92045909470968 
H32   H     0.27721509402815 0.31365669290230 0.07953819741678 
