data_stdin
_audit_creation_method 'critic2'
_audit_creation_date 2023-8-11
_chemical_formula_sum 'C26 H16'
_cell_formula_units_Z 2
_cell_length_a         7.4007738826
_cell_length_b        10.6084188505
_cell_length_c        11.3482464000
_cell_angle_alpha        91.2071
_cell_angle_beta        72.4165
_cell_angle_gamma        75.9935
_cell_volume           819.793655
_space_group_crystal_system triclinic
_space_group_IT_number 2
_space_group_name_H-M_alt 'P-1'
_space_group_name_Hall '-P 1'
loop_
_symmetry_equiv_pos_site_id
_symmetry_equiv_pos_as_xyz
 1 'x,y,z'
 2 '-x,-y,-z'
loop_
_atom_site_label
_atom_site_type_symbol
_atom_site_fract_x
_atom_site_fract_y
_atom_site_fract_z
C1    C     0.56875413065670 0.04256142030542 0.33257018973914 
C2    C     0.73555106019055 0.96908614970411 0.35872620046280 
C3    C     0.87380289057063 0.03040137006268 0.37208710003082 
C4    C     0.69074558964421 0.23794274964557 0.32255982026620 
C5    C     0.85258372002965 0.16503683031678 0.35804582982234 
C6    C     0.98563437005068 0.22986235971951 0.38506404012081 
C7    C     0.94606699987031 0.36266998975269 0.39101928000455 
C8    C     0.66939592993093 0.37607660031075 0.30864621004371 
C9    C     0.78214581024298 0.43865676975696 0.36013315999111 
C10   C     0.72711175973244 0.57687743962677 0.38603236005504 
C11   C     0.56007034939322 0.64958191029416 0.36750793969809 
C12   C     0.52759335991806 0.45622964969129 0.25841489002778 
C13   C     0.45707382935964 0.59160992032435 0.30396529975052 
C14   C     0.28322683013188 0.66872864950540 0.28622116968609 
C15   C     0.18305797036834 0.61524930958764 0.22433627994664 
C16   C     0.44898522017296 0.41126819962996 0.16790992038555 
C17   C     0.26591418067788 0.48721848954766 0.16147044960096 
C18   C     0.16597135006771 0.43670157975729 0.08956996033927 
C19   C     0.24817703970807 0.31871983039389 0.01987074019298 
C20   C     0.44434668923089 0.24877983999783 0.00833861036131 
C21   C     0.55006821020143 0.29825447010745 0.07713752000401 
C22   C     0.75339245987705 0.23811516040263 0.04674841010226 
C23   C     0.84380526021749 0.12923277973283 0.96108317992492 
C24   C     0.73363591052678 0.07252277016543 0.90414036004460 
C25   C     0.53755006970467 0.13324977957692 0.92622496000652 
C26   C     0.54825943929170 0.17298517005121 0.31398787023444 
H1    H     0.45407197995419 0.99659913976396 0.32806733035278 
H2    H     0.75299463017504 0.86583002999106 0.37093050040059 
H3    H     0.00087063039609 0.97629192964037 0.39604737003458 
H4    H     0.11166470002607 0.17239977960951 0.40808203003367 
H5    H     0.03942463048469 0.41419071018108 0.41904913007582 
H6    H     0.81322882965607 0.62190306040331 0.42820750998043 
H7    H     0.50381873945902 0.75323873954936 0.39980613026922 
H8    H     0.23017486947700 0.77044425997585 0.32508547012512 
H9    H     0.04497972954645 0.67204123008570 0.21550048973712 
H10   H     0.02023613000466 0.49424953967319 0.09402475989082 
H11   H     0.16981109004993 0.27892904957197 0.96726193988075 
H12   H     0.84071173965053 0.27969145048872 0.09042713004514 
H13   H     0.00127279997868 0.08660841001548 0.93729558000274 
H14   H     0.80407009016601 0.98305906970766 0.84162000019339 
H15   H     0.45099022006960 0.09346444977385 0.88010972977036 
H16   H     0.41795605968725 0.22761723965591 0.29443410015995 
