data_stdin
_audit_creation_method 'critic2'
_audit_creation_date 2023-8-11
_chemical_formula_sum 'C26 H16'
_cell_formula_units_Z 8
_cell_length_a         9.0525584360
_cell_length_b        19.9191599970
_cell_length_c        22.5365880013
_cell_angle_alpha       100.5149
_cell_angle_beta        66.2178
_cell_angle_gamma       117.0385
_cell_volume          3312.255878
_space_group_crystal_system triclinic
_space_group_IT_number 2
_space_group_name_H-M_alt 'P-1'
_space_group_name_Hall '-P 1'
loop_
_symmetry_equiv_pos_site_id
_symmetry_equiv_pos_as_xyz
 1 'x,y,z'
 2 '-x,-y,-z'
loop_
_atom_site_label
_atom_site_type_symbol
_atom_site_fract_x
_atom_site_fract_y
_atom_site_fract_z
C1    C     0.15957123769673 0.70694959290975 0.21523794850733 
C2    C     0.59127681879420 0.70717800710274 0.28477092957750 
C3    C     0.24543005037609 0.79285041230482 0.71527625413787 
C4    C     0.67705320553464 0.79300019890913 0.78477192106934 
C5    C     0.04476161829909 0.64362834576029 0.19101513243216 
C6    C     0.42793748521116 0.64370119222207 0.30891141056523 
C7    C     0.25745689631196 0.85627973251050 0.69109530312355 
C8    C     0.64056011267306 0.85639277135344 0.80895193872339 
C9    C     0.11527207422730 0.60135044317144 0.14226344895999 
C10   C     0.40044371143005 0.60133456813342 0.35768175647822 
C11   C     0.41268006984947 0.89866902931089 0.64234686190581 
C12   C     0.69780867308455 0.89865726819448 0.85769694975227 
C13   C     0.41940958895996 0.68856543669501 0.13684570076447 
C14   C     0.69347114967344 0.68869621397902 0.36322018602624 
C15   C     0.54221975956610 0.81139974188986 0.63688799687014 
C16   C     0.81622466990697 0.81132091554395 0.86316544472058 
C17   C     0.30085767984091 0.62158977231029 0.11520674536986 
C18   C     0.53153270024350 0.62161091570000 0.38481225218390 
C19   C     0.55777684346501 0.87845278109160 0.61526838437607 
C20   C     0.78843812664054 0.87835198284738 0.88477157209399 
C21   C     0.36929338218627 0.57390733805745 0.06874534779265 
C22   C     0.50661212928967 0.57383694114264 0.43127854137815 
C23   C     0.72173985895595 0.92624500149020 0.56881896347378 
C24   C     0.85912732743150 0.92604262518111 0.93119474638003 
C25   C     0.54430922055076 0.58824959705140 0.04886454010297 
C26   C     0.64167040007731 0.58818375272607 0.45116992115564 
C27   C     0.86808396223823 0.91193474129904 0.54894895008446 
C28   C     0.96552526468468 0.91166523866257 0.95104857976271 
C29   C     0.60974602898259 0.70911924932564 0.10834193780446 
C30   C     0.82655080139384 0.70920090812678 0.39170733954378 
C31   C     0.69148791315346 0.79090059294316 0.60839601427712 
C32   C     0.90825301877435 0.79074794640267 0.89163356219828 
C33   C     0.66571061344115 0.65358758679868 0.07028988349601 
C34   C     0.80610749820364 0.65358220435709 0.42973525451690 
C35   C     0.85866454647112 0.84652892810487 0.57036859048724 
C36   C     0.99910007302926 0.84629607948255 0.92962516654317 
C37   C     0.83971559956913 0.66039422690634 0.05671257468448 
C38   C     0.95289686609861 0.66034936972671 0.44325522783316 
C39   C     0.01907666303411 0.83975817909997 0.55681598073900 
C40   C     0.13234616111209 0.83949215701300 0.94312045186261 
C41   C     0.94778215355609 0.71645596206181 0.08519761037385 
C42   C     0.11822600952767 0.71645891001506 0.41472413585843 
C43   C     0.01487311894133 0.78361939983819 0.58530497130103 
C44   C     0.18537915696420 0.78341622000234 0.91461193584530 
C45   C     0.74368408014917 0.77880647568149 0.12167367786707 
C46   C     0.98733041235949 0.77890729633045 0.37833397395975 
C47   C     0.68595097445763 0.72117319124382 0.62173046418769 
C48   C     0.92952280172400 0.72105190481460 0.87827819835978 
C49   C     0.90151163767910 0.77598777759062 0.11885090499832 
C50   C     0.13954599576739 0.77607138247334 0.38108910197288 
C51   C     0.84940464737237 0.72399969769451 0.61893277520552 
C52   C     0.08741301616370 0.72386985625314 0.88101977067107 
C53   C     0.01191295806114 0.83232326654575 0.15029984692367 
C54   C     0.31314058392030 0.83248656159489 0.34961567835347 
C55   C     0.84699467957206 0.66757497169785 0.65037711851797 
C56   C     0.14818614448997 0.66751790067212 0.84955632189367 
C57   C     0.97269299313318 0.89132468211733 0.18093719082020 
C58   C     0.33542366164685 0.89154868903329 0.31898818274789 
C59   C     0.68965817237118 0.60848537950902 0.68098084384508 
C60   C     0.05233653202946 0.60851555699374 0.81895424702215 
C61   C     0.73193244674771 0.85054297977052 0.13848471636906 
C62   C     0.00933258075393 0.85066619269036 0.36151500300827 
C63   C     0.53064994829369 0.64938885384157 0.63851348083332 
C64   C     0.80795289174319 0.64932369267595 0.86148278608904 
C65   C     0.83826257126862 0.90349263123715 0.17315899915644 
C66   C     0.18532173654317 0.90367219302383 0.32677039394138 
C67   C     0.53093719965317 0.59633808674784 0.67317861461427 
C68   C     0.87794226376776 0.59637583770975 0.82676523245295 
C69   C     0.81837635052571 0.97151962588259 0.19740476075287 
C70   C     0.21406335265374 0.97168285463666 0.30242830488547 
C71   C     0.37491420598899 0.52823587704003 0.69738846866060 
C72   C     0.77063278160634 0.52838512819337 0.80248258769518 
C73   C     0.71151318361726 0.99134355320390 0.18261889290030 
C74   C     0.07740418875201 0.99142021360784 0.31719137846348 
C75   C     0.22847133106575 0.50844418494962 0.68257273515452 
C76   C     0.59443268682061 0.50859260536898 0.81727562647165 
C77   C     0.62332224932897 0.94572180797034 0.13983685321579 
C78   C     0.90331118385102 0.94576903293553 0.36009595188657 
C79   C     0.23170583108050 0.55418889759771 0.63979245285806 
C80   C     0.51162362800132 0.55418859623649 0.86012267572168 
C81   C     0.63324582910809 0.87533279551173 0.11693921225708 
C82   C     0.86732945404106 0.87540682898181 0.38309864698244 
C83   C     0.38247439398906 0.62465414468129 0.61693890293330 
C84   C     0.61640227743208 0.62454294038002 0.88305681576932 
C85   C     0.55712165374004 0.83639803490894 0.06983936045496 
C86   C     0.69668013305521 0.83644537926882 0.43031769124566 
C87   C     0.38437937225803 0.66373044086326 0.56985292966624 
C88   C     0.52360070989989 0.66344941361067 0.93020151399954 
C89   C     0.47137238866971 0.86334466541973 0.04816419136464 
C90   C     0.56736319943795 0.86334998277120 0.45202328653698 
C91   C     0.24482367324620 0.63684223084436 0.54815140553439 
C92   C     0.34041221603445 0.63650672876730 0.95189053938355 
C93   C     0.45777165165633 0.93149778967725 0.07234300778557 
C94   C     0.60222508344641 0.93147483780880 0.42773676867050 
C95   C     0.09485391507438 0.56860614917700 0.57228357049077 
C96   C     0.23900141320876 0.56838572854751 0.92767992582156 
C97   C     0.53360540909183 0.97189890526367 0.11729430069631 
C98   C     0.76827641970286 0.97189304870757 0.38265868368451 
C99   C     0.08973558308111 0.52806651608884 0.61721636709016 
C100  C     0.32427676227230 0.52801603436901 0.88268144508652 
C101  C     0.34165822914310 0.72866712403752 0.18876444275628 
C102  C     0.72002919413054 0.72892508746818 0.31131506714754 
C103  C     0.38407769479105 0.77116336037987 0.68878646068396 
C104  C     0.76235091243713 0.77121038121940 0.81127627508743 
H1    H     0.10519199985969 0.73886738849953 0.25545843110119 
H2    H     0.61773871879564 0.73918798567764 0.24455058761487 
H3    H     0.12707121427246 0.76082461807737 0.75548048478949 
H4    H     0.63953302886224 0.76108985426954 0.74455724981219 
H5    H     0.90200571904599 0.62820023786555 0.21144040798467 
H6    H     0.32636013343636 0.62822128349414 0.28840765909321 
H7    H     0.14557353009763 0.87169572995157 0.71154943118607 
H8    H     0.56984881746478 0.87188805603894 0.78849843370227 
H9    H     0.02878785673820 0.55028642081030 0.12457838592034 
H10   H     0.27852595976829 0.55016492462091 0.37530863260419 
H11   H     0.42846918421758 0.94980490666740 0.62468355488328 
H12   H     0.67815471063967 0.94976752182141 0.87534917776979 
H13   H     0.27703156378559 0.52406794086371 0.05213149817046 
H14   H     0.38100281265269 0.52392985298595 0.44787901306481 
H15   H     0.72926680223528 0.97614814571374 0.55222934262636 
H16   H     0.83337449096608 0.97592185311793 0.94779084743897 
H17   H     0.59541187938042 0.54945701222519 0.01694895153439 
H18   H     0.62868931554136 0.54933994777841 0.48308555781747 
H19   H     0.99691212957531 0.95081522198701 0.51707042344133 
H20   H     0.03029542292505 0.95046822688140 0.98292334075914 
H21   H     0.87886065305468 0.61716240142605 0.02727269744536 
H22   H     0.93291751600520 0.61704116958882 0.47267266312447 
H23   H     0.14480141200290 0.88307645991629 0.52740398452390 
H24   H     0.19903207727420 0.88274345661787 0.97250576094539 
H25   H     0.07247055138944 0.71775580991390 0.08184707101132 
H26   H     0.23622009834796 0.71772789103441 0.41801984084960 
H27   H     0.13694808739777 0.78233258587037 0.58198428708325 
H28   H     0.30082277050763 0.78212191057632 0.91789433041322 
H29   H     0.12519809771884 0.82639968407065 0.15079503522640 
H30   H     0.42747628551318 0.82658654582365 0.34909527225473 
H31   H     0.97211071045094 0.67349260003848 0.65088823186463 
H32   H     0.27435155314464 0.67342950379341 0.84901818935478 
H33   H     0.05027090639551 0.93210886656725 0.20838214815305 
H34   H     0.46814369371108 0.93239706046684 0.29152393888016 
H35   H     0.68555388674180 0.56762076554987 0.70841607119340 
H36   H     0.10335914561865 0.56771647945655 0.79149588732771 
H37   H     0.89650746506146 0.00863965551866 0.22614658449732 
H38   H     0.34993596923098 0.00884577702415 0.27362406201327 
H39   H     0.37870018609137 0.49103340517057 0.72612234281526 
H40   H     0.83221545654695 0.49127910540482 0.77370191987575 
H41   H     0.70065080962304 0.04428792168012 0.20005369395030 
H42   H     0.10145002019984 0.04433047566110 0.29966854110526 
H43   H     0.11165624807671 0.45544781026639 0.69998045494625 
H44   H     0.51262571662026 0.45568700733059 0.79980884946824 
H45   H     0.57144710750528 0.78525426940274 0.04856056061990 
H46   H     0.66835057371869 0.78530591612908 0.45164876497081 
H47   H     0.50104592476452 0.71494917588872 0.54861417571732 
H48   H     0.59752298235515 0.71457630012064 0.95149485954439 
H49   H     0.41772621760069 0.83243039416567 0.01096550532275 
H50   H     0.43906056544198 0.83242147959626 0.48931101518119 
H51   H     0.25311777346077 0.66787323214133 0.51097162677140 
H52   H     0.27392872675874 0.66740487338982 0.98911415614270 
H53   H     0.38954733746995 0.95227937044348 0.05514816186808 
H54   H     0.49944263257576 0.95222260366424 0.44494520083516 
H55   H     0.98513706770301 0.54786698278873 0.55506611259710 
H56   H     0.09467332957420 0.54760507017849 0.94488224625873 
H57   H     0.53019522404544 0.02600079824464 0.13521392244804 
H58   H     0.80079279364815 0.02597666559222 0.36465498167510 
H59   H     0.97808912857324 0.47389869915398 0.63509669315501 
H60   H     0.24862554791215 0.47393641162197 0.86473216786191 
H61   H     0.42553214550503 0.77723661632370 0.20927938677243 
H62   H     0.84504236337374 0.77760646014082 0.29085033266772 
H63   H     0.37066660353161 0.72251509152931 0.70928008874961 
H64   H     0.79003795455851 0.72258433144747 0.79079597083026 
