data_stdin
_audit_creation_method 'critic2'
_audit_creation_date 2023-8-11
_chemical_formula_sum 'C26 H16'
_cell_formula_units_Z 8
_cell_length_a         9.2588342061
_cell_length_b        17.0037116802
_cell_length_c        22.2989902902
_cell_angle_alpha        90.0005
_cell_angle_beta        90.0019
_cell_angle_gamma        89.9991
_cell_volume          3510.631440
_space_group_crystal_system orthorhombic
_space_group_IT_number 61
_space_group_name_H-M_alt 'Pbca'
_space_group_name_Hall '-P 2ac 2ab'
loop_
_symmetry_equiv_pos_site_id
_symmetry_equiv_pos_as_xyz
 1 'x,y,z'
 2 '-x,-y,-z'
 3 '-1/2-x,-y,-1/2+z'
 4 '-1/2+x,y,-1/2-z'
 5 '-1/2+x,-1/2-y,-z'
 6 '-1/2-x,-1/2+y,z'
 7 '-x,-1/2+y,-1/2-z'
 8 'x,-1/2-y,-1/2+z'
loop_
_atom_site_label
_atom_site_type_symbol
_atom_site_fract_x
_atom_site_fract_y
_atom_site_fract_z
C1    C     0.05570616987052 0.54788602014803 0.08262283008335 
C2    C     0.13984079953844 0.51122955978628 0.12770545993797 
C3    C     0.28135968047490 0.53958149016179 0.14563862980099 
C4    C     0.33985431970334 0.61531764993071 0.12852304021367 
C5    C     0.25668783024806 0.68541613981657 0.11578600981285 
C6    C     0.92230704024575 0.51873535984490 0.06603782000315 
C7    C     0.08573156008619 0.43965981998142 0.15298877021865 
C8    C     0.37270036959959 0.48661936012146 0.17739592996836 
C9    C     0.49345584992694 0.62145808994898 0.12376574992309 
C10   C     0.11712061053226 0.70289420004222 0.14229915007674 
C11   C     0.32026436011497 0.74414168986194 0.07872741992845 
C12   C     0.86594367973190 0.45098795012643 0.09369776996914 
C13   C     0.94740109048214 0.41192628010104 0.13614573021656 
C14   C     0.17472802046606 0.39440184989840 0.19221585018302 
C15   C     0.31472393958659 0.41583796007008 0.20216492983225 
C16   C     0.52352543034610 0.50214544988904 0.18200189987665 
C17   C     0.58316962041316 0.56444387994398 0.15202967021330 
C18   C     0.03436096006022 0.76743782994899 0.11947297016424 
C19   C     0.55587175968973 0.68464510994344 0.09091706015567 
C20   C     0.06138485997039 0.66203662980550 0.19258373012641 
C21   C     0.47022441043037 0.74072149003078 0.06495995998784 
C22   C     0.23490555954865 0.80817253972902 0.05722890020462 
C23   C     0.09472589960504 0.81758747975631 0.07465883012396 
C24   C     0.92773339005973 0.67996795978606 0.21665658012896 
C25   C     0.89625959009547 0.78326263987451 0.14391062015347 
C26   C     0.84227585977409 0.73984139975016 0.19125336013064 
H1    H     0.09831918052029 0.59896728009467 0.05939040988249 
H2    H     0.86176013053802 0.54723968003771 0.03030843992751 
H3    H     0.76015148027874 0.42921258978019 0.08036917019051 
H4    H     0.90888075961362 0.35731261977088 0.15601952991976 
H5    H     0.13187323980249 0.34005618007584 0.21102810000916 
H6    H     0.38664960006854 0.37829026011896 0.22808394021418 
H7    H     0.59132449048283 0.46120593992652 0.20684615007493 
H8    H     0.69981086024812 0.57262088022014 0.15067135981159 
H9    H     0.67278038000815 0.68618005028243 0.08568613016027 
H10   H     0.12485600006772 0.61580692984643 0.21341586017897 
H11   H     0.51667401970597 0.78620387026089 0.03652050004112 
H12   H     0.28547396969587 0.85001373978229 0.02679427019838 
H13   H     0.02995182001136 0.86593021994137 0.05722589020805 
H14   H     0.88923910946596 0.64763733996431 0.25559510006296 
H15   H     0.83446806017741 0.83187681987674 0.12524686989100 
H16   H     0.73551601031632 0.75202975993943 0.20959748020475 
