data_stdin
_audit_creation_method 'critic2'
_audit_creation_date 2023-8-11
_chemical_formula_sum 'C26 H16'
_cell_formula_units_Z 4
_cell_length_a         7.1232568181
_cell_length_b        11.8397743720
_cell_length_c        22.4466828168
_cell_angle_alpha        90.0045
_cell_angle_beta        63.5207
_cell_angle_gamma        90.0033
_cell_volume          1694.507622
_space_group_crystal_system monoclinic
_space_group_IT_number 14
_space_group_name_H-M_alt 'P2_1/c'
_space_group_name_Hall '-P 2ybc'
loop_
_symmetry_equiv_pos_site_id
_symmetry_equiv_pos_as_xyz
 1 'x,y,z'
 2 '-x,-y,-z'
 3 '-x,-1/2+y,-1/2-z'
 4 'x,-1/2-y,-1/2+z'
loop_
_atom_site_label
_atom_site_type_symbol
_atom_site_fract_x
_atom_site_fract_y
_atom_site_fract_z
C1    C     0.48808438033029 0.75347005990701 0.12995903018842 
C2    C     0.26649879972643 0.75620610006667 0.16585280020572 
C3    C     0.15571683043124 0.80738008015455 0.23139973009838 
C4    C     0.25320360951989 0.87670647962287 0.26329252018765 
C5    C     0.43880039908747 0.94618164964097 0.23016184022056 
C6    C     0.58862975989961 0.70160355998592 0.06847092024283 
C7    C     0.14984425058149 0.69666882041612 0.13762049003050 
C8    C     0.94099101993477 0.77724465029432 0.26925731997863 
C9    C     0.15728997956767 0.87573836968035 0.33452343983214 
C10   C     0.50539376942231 0.99758993033809 0.16508692012252 
C11   C     0.55457740956852 0.97532456010510 0.26584292006058 
C12   C     0.47256699996498 0.64822625962368 0.03953664024559 
C13   C     0.25654182936581 0.64499888036540 0.07434791001018 
C14   C     0.92806666941642 0.68435461038121 0.17454328003802 
C15   C     0.82882274959120 0.72065333973473 0.23883605988203 
C16   C     0.83743486045285 0.79651808023395 0.33911391001499 
C17   C     0.94841680036176 0.83616236036656 0.37107985992459 
C18   C     0.70653732019399 0.05093954969923 0.13339279004741 
C19   C     0.26903189901178 0.91532230035041 0.36942674020942 
C20   C     0.37337933969292 0.00621052965493 0.13327166014211 
C21   C     0.46812107983916 0.95671974021578 0.33561865002801 
C22   C     0.75552429010208 0.02770401023804 0.23255122996972 
C23   C     0.83324587013573 0.05970261039106 0.16756833979136 
C24   C     0.43892936984892 0.05984057001287 0.07257960985657 
C25   C     0.77358687078497 0.10079154984976 0.06979423987636 
C26   C     0.64277046918344 0.10509872968331 0.03937679022004 
H1    H     0.58238654969250 0.79088136959907 0.15166397985312 
H2    H     0.75954160074110 0.70106825985163 0.04305800988122 
H3    H     0.55137240903973 0.60788214961220 0.99097721019099 
H4    H     0.16346838024878 0.60067909005790 0.05411668986819 
H5    H     0.84184139011357 0.63989863027847 0.15202521006013 
H6    H     0.66200551025110 0.70521337036803 0.26888292006399 
H7    H     0.67447636024260 0.77062113997018 0.36660299976984 
H8    H     0.87823584975302 0.83973747016338 0.42519182020148 
H9    H     0.19419483964110 0.90912538996028 0.42358370981875 
H10   H     0.21517920011004 0.97257591981620 0.15786527987413 
H11   H     0.55892279979266 0.98242199025644 0.36150650982898 
H12   H     0.84463141930735 0.04210624977665 0.26062984013441 
H13   H     0.98614074949403 0.09980778958590 0.14247676001043 
H14   H     0.33257208982438 0.06701900030762 0.04989405009070 
H15   H     0.92991326004852 0.13797708960561 0.04595219019207 
H16   H     0.69404326038319 0.14497778967989 0.99094254016117 
