data_stdin
_audit_creation_method 'critic2'
_audit_creation_date 2023-8-11
_chemical_formula_sum 'C26 H16'
_cell_formula_units_Z 4
_cell_length_a        17.3252108900
_cell_length_b         9.2399263801
_cell_length_c        10.4158366100
_cell_angle_alpha        90.0000
_cell_angle_beta        90.0000
_cell_angle_gamma        89.9998
_cell_volume          1667.405383
_space_group_crystal_system triclinic
_space_group_IT_number 1
_space_group_name_H-M_alt 'P 1'
_space_group_name_Hall 'P 1'
loop_
_symmetry_equiv_pos_site_id
_symmetry_equiv_pos_as_xyz
 1 'x,y,z'
loop_
_atom_site_label
_atom_site_type_symbol
_atom_site_fract_x
_atom_site_fract_y
_atom_site_fract_z
C1    C     0.30451374025898 0.55150998955180 0.99603372970094 
C2    C     0.69548614991640 0.44849012954807 0.49603384988066 
C3    C     0.19548550002553 0.05151188977220 0.49602665006134 
C4    C     0.80451443979507 0.94848819036736 0.99602658981759 
C5    C     0.34448771977287 0.62146963972263 0.09720640035031 
C6    C     0.65551222994550 0.37853032032634 0.59720650000720 
C7    C     0.15551308011417 0.12146919967248 0.59720181025836 
C8    C     0.84448693021328 0.87853098981620 0.09720178023727 
C9    C     0.32235523005272 0.76217536036467 0.14733435997910 
C10   C     0.67764477005423 0.23782456947012 0.64733436994831 
C11   C     0.17764526023496 0.26217605028798 0.64732854033245 
C12   C     0.82235483973126 0.73782411006892 0.14732859955136 
C13   C     0.24999078981358 0.83362767962870 0.11877762985965 
C14   C     0.75000922982201 0.16637233996959 0.61877760047340 
C15   C     0.25000982998816 0.33362777972561 0.61877208973541 
C16   C     0.74999029008409 0.66637223013310 0.11877219956579 
C17   C     0.17763166005841 0.76215265015394 0.09022492040968 
C18   C     0.82236833985293 0.23784747977021 0.59022496041846 
C19   C     0.32236881973776 0.26215210956544 0.59021908952399 
C20   C     0.67763125001992 0.73784770001066 0.09021911965411 
C21   C     0.32811810008677 0.41884672034133 0.94867185987291 
C22   C     0.67188165003752 0.58115330951111 0.44867187975784 
C23   C     0.17188270981539 0.91884565051829 0.44866805037734 
C24   C     0.82811708013834 0.08115456981241 0.94866804992465 
C25   C     0.41341463021436 0.55395132024104 0.14392472979034 
C26   C     0.58658531006836 0.44604853975613 0.64392485995090 
C27   C     0.08658849973833 0.05394717974296 0.64392512999936 
C28   C     0.91341149018186 0.94605313047417 0.14392507035048 
C29   C     0.37861712025378 0.84041952043440 0.21866539957676 
C30   C     0.62138293007523 0.15958026995802 0.71866538003886 
C31   C     0.12138308984194 0.34042010041601 0.71865899043463 
C32   C     0.87861707015860 0.65958018998128 0.21865907008739 
C33   C     0.24998492971830 0.98846703020375 0.11877062024277 
C34   C     0.75001512975004 0.01153299047783 0.61877049984589 
C35   C     0.25001662024364 0.48846711946968 0.61876580017408 
C36   C     0.74998358987645 0.51153289038989 0.11876601965347 
C37   C     0.15550677986937 0.62144729963392 0.14036457018497 
C38   C     0.84449317980047 0.37855281955502 0.64036466976803 
C39   C     0.34449402024434 0.12144789985091 0.64035993970034 
C40   C     0.65550594981996 0.87855186002851 0.14035988958280 
C41   C     0.12136627993603 0.84037404950230 0.01888297024159 
C42   C     0.87863374999310 0.15962618956251 0.51888304027955 
C43   C     0.37863388974253 0.34037365997727 0.51887656043735 
C44   C     0.62136624004805 0.65962600981983 0.01887658985906 
C45   C     0.39300962012009 0.34857988010634 0.00111551999781 
C46   C     0.60699021985203 0.65142016031188 0.50111575012195 
C47   C     0.10699513023887 0.84857293026369 0.50111914014764 
C48   C     0.89300473974393 0.15142727032844 0.00111888987077 
C49   C     0.43517999026916 0.41640372005460 0.09629424955221 
C50   C     0.56481988985829 0.58359616004342 0.59629444016230 
C51   C     0.06482576973496 0.91639541985317 0.59629982992426 
C52   C     0.93517415021310 0.08360488990113 0.09629965969080 
C53   C     0.46200448010443 0.62908921041897 0.23230310043434 
C54   C     0.53799553016093 0.37091051949463 0.73230325968792 
C55   C     0.03799852014787 0.12908532001528 0.73230295020666 
C56   C     0.96200155014450 0.87091508955741 0.23230287995330 
C57   C     0.44635833989566 0.76914194024370 0.26452054014039 
C58   C     0.55364172025006 0.23085775996617 0.76452060953642 
C59   C     0.05364272978776 0.26914049030942 0.76451601990840 
C60   C     0.94635741001340 0.73085991012310 0.26451603016323 
C61   C     0.36977789987210 0.99194510003196 0.23833810983835 
C62   C     0.63022217995959 0.00805467010614 0.73833794998323 
C63   C     0.13022240982224 0.49194601037501 0.73833040971063 
C64   C     0.86977785009964 0.50805426950843 0.23833059995159 
C65   C     0.31045790974019 0.06530393020787 0.18111676996558 
C66   C     0.68954216999749 0.93469595994911 0.68111657011750 
C67   C     0.18954356022638 0.56530390966260 0.68111099007276 
C68   C     0.81045670998969 0.43469623049707 0.18111126016658 
C69   C     0.08658449984377 0.55390906036073 0.09364943016248 
C70   C     0.91341546983595 0.44609115022144 0.59364967004872 
C71   C     0.41341864984631 0.05391335020531 0.59364989978159 
C72   C     0.58658130020980 0.94608625972271 0.09364969966945 
C73   C     0.18950746973716 0.06528072996054 0.05641529988936 
C74   C     0.81049260987375 0.93471941042440 0.55641518977783 
C75   C     0.31049397999365 0.56528092037396 0.55640950988976 
C76   C     0.68950628028451 0.43471892022576 0.05640976992417 
C77   C     0.19548346010311 0.55150548015465 0.24154359034769 
C78   C     0.80451645001426 0.44849455032940 0.74154362034927 
C79   C     0.30451577994692 0.05150365027951 0.74153636964716 
C80   C     0.69548410997565 0.94849617024725 0.24153636981667 
C81   C     0.13019458007854 0.99189926002112 0.99919617036225 
C82   C     0.86980549020119 0.00810100038235 0.49919615992984 
C83   C     0.36980567003547 0.49189850007674 0.49918849005630 
C84   C     0.63019453993317 0.50810117049623 0.99918864030462 
C85   C     0.05363071985700 0.76907542985581 0.97302995032092 
C86   C     0.94636931987797 0.23092490047347 0.47303016025521 
C87   C     0.44637030023969 0.26907702046875 0.47302544967060 
C88   C     0.55362978971697 0.73092248950834 0.97302535008368 
C89   C     0.03799176002308 0.62902384027226 0.00526025997711 
C90   C     0.96200824011549 0.37097647983210 0.50526052957661 
C91   C     0.46201121014713 0.12902788001892 0.50526015002208 
C92   C     0.53798879980574 0.87097159051160 0.00525995019679 
C93   C     0.17188771028796 0.41884012019265 0.28891639025584 
C94   C     0.82811221981464 0.58115981988216 0.78891662022186 
C95   C     0.32811325998931 0.91884147032799 0.78891273035761 
C96   C     0.67188662971338 0.08115841996348 0.28891249005935 
C97   C     0.06482798979218 0.41636233018932 0.14129161047707 
C98   C     0.93517192978815 0.58363787977099 0.64129190011430 
C99   C     0.43517780979733 0.91637078948499 0.64129728028212 
C100  C     0.56482206014076 0.08362877977681 0.14129698028594 
C101  C     0.10700168993259 0.34855468039574 0.23647637997372 
C102  C     0.89299816013065 0.65144547963405 0.73647655020862 
C103  C     0.39300307001332 0.84856168977076 0.73647992007636 
C104  C     0.60699671020753 0.15143793995131 0.23647969991913 
H1    H     0.25472098975177 0.60338263041951 0.95253529978840 
H2    H     0.74527887000118 0.39661752980927 0.45253531028140 
H3    H     0.24527573992675 0.10338889047317 0.45252389976855 
H4    H     0.75472417986487 0.89661114962644 0.95252394976757 
H5    H     0.29654399997884 0.36951883018632 0.86966253956234 
H6    H     0.70345578018478 0.63048140951980 0.36966271997628 
H7    H     0.20345491002619 0.86952000021580 0.36965583972254 
H8    H     0.79654490015817 0.13048001979260 0.86965566960041 
H9    H     0.40988443989696 0.24257558013814 0.96498605970317 
H10   H     0.59011530987328 0.75742442996157 0.46498630043357 
H11   H     0.09012280006140 0.74256421956538 0.46499578027154 
H12   H     0.90987699010338 0.25743601023161 0.96499547993124 
H13   H     0.48754818010559 0.36724474021896 0.13426331021025 
H14   H     0.51245168004462 0.63275501948880 0.63426348986601 
H15   H     0.01246070977689 0.86723150997535 0.63427594024668 
H16   H     0.98753919999940 0.13276890016860 0.13427572965127 
H17   H     0.51437430971922 0.57641715956762 0.26671115992294 
H18   H     0.48562569014490 0.42358247970856 0.76671134016372 
H19   H     0.98562965010190 0.07641172984533 0.76671359980473 
H20   H     0.01437039997423 0.92358877956727 0.26671350000837 
H21   H     0.48654533022655 0.83122172980929 0.32305840009197 
H22   H     0.51345475017635 0.16877785992542 0.82305841961113 
H23   H     0.01345476025225 0.33121943989869 0.82305258964840 
H24   H     0.98654542982088 0.66878105027688 0.32305264001104 
H25   H     0.41345135026370 0.04950104959014 0.29314521036898 
H26   H     0.58654873993055 0.95049859980742 0.79314496042127 
H27   H     0.08654836010966 0.54950303040430 0.79313523984213 
H28   H     0.91345194019040 0.45049734951987 0.29313547019727 
H29   H     0.30746936015274 0.18299906010868 0.18488827998256 
H30   H     0.69253075022168 0.81700082948500 0.68488800004301 
H31   H     0.19253304003551 0.68299894039092 0.68488262979350 
H32   H     0.80746730006628 0.31700120028766 0.18488295978014 
H33   H     0.19248729017041 0.18297622013736 0.05263384974017 
H34   H     0.80751282980762 0.81702392947040 0.55263366990842 
H35   H     0.30751507988612 0.68297649997022 0.55262814029076 
H36   H     0.69248523980641 0.31702334985228 0.05262851993250 
H37   H     0.24527399996060 0.60339009022035 0.28503842017454 
H38   H     0.75472594981774 0.39660982987071 0.78503847017331 
H39   H     0.25472278972372 0.10338397951790 0.78502697997384 
H40   H     0.74527716006489 0.89661600009915 0.28502699046763 
H41   H     0.08651788977362 0.04943695042167 0.94438163022831 
H42   H     0.91348220997671 0.95056341016050 0.44438168006707 
H43   H     0.41348176000332 0.54943513948370 0.44437175020452 
H44   H     0.58651850021734 0.45056442022766 0.94437186028114 
H45   H     0.01344254020399 0.83113857962120 0.91448072986982 
H46   H     0.98655753988952 0.16886181031870 0.41448100007032 
H47   H     0.48655750007384 0.33114105999432 0.41447500979103 
H48   H     0.51344266025689 0.66885836024172 0.91447484976331 
H49   H     0.98562600974802 0.57633657980561 0.97085360023852 
H50   H     0.01437400021333 0.42366379955041 0.47085398046436 
H51   H     0.51437792988050 0.07634214047617 0.47085614027249 
H52   H     0.48562207026861 0.92365722047315 0.97085580973866 
H53   H     0.20346580993523 0.36952954045686 0.36792935046395 
H54   H     0.79653400008207 0.63047043976578 0.86792937044204 
H55   H     0.29653309987078 0.86952838992341 0.86792242010078 
H56   H     0.70346665012496 0.13047146042914 0.36792237009515 
H57   H     0.01246428027114 0.36718563042535 0.10332325953276 
H58   H     0.98753565005077 0.63281464040084 0.60332364993713 
H59   H     0.48754470016861 0.86719909011075 0.60333610992775 
H60   H     0.51245517011546 0.13280040040438 0.10333567032406 
H61   H     0.09012948979895 0.24254263960099 0.27259231955830 
H62   H     0.90987034023451 0.75745749988318 0.77259255973870 
H63   H     0.40987782011931 0.74255413005221 0.77260210006580 
H64   H     0.59012191986437 0.25744549968628 0.27260175994375 
