data_stdin
_audit_creation_method 'critic2'
_audit_creation_date 2023-8-11
_chemical_formula_sum 'C26 H16'
_cell_formula_units_Z 4
_cell_length_a        11.7656026308
_cell_length_b        20.3027348704
_cell_length_c         7.0359220953
_cell_angle_alpha        89.9993
_cell_angle_beta        89.9977
_cell_angle_gamma        89.9994
_cell_volume          1680.698225
_space_group_crystal_system orthorhombic
_space_group_IT_number 19
_space_group_name_H-M_alt 'P2_12_12_1'
_space_group_name_Hall 'P 2ac 2ab'
loop_
_symmetry_equiv_pos_site_id
_symmetry_equiv_pos_as_xyz
 1 'x,y,z'
 2 '-x,-1/2+y,-1/2-z'
 3 '-1/2-x,-y,-1/2+z'
 4 '-1/2+x,-1/2-y,-z'
loop_
_atom_site_label
_atom_site_type_symbol
_atom_site_fract_x
_atom_site_fract_y
_atom_site_fract_z
C1    C     0.49601681225054 0.87921319574870 0.31810555644668 
C2    C     0.49323831693560 0.84566993860246 0.14152250945223 
C3    C     0.43693113380113 0.78262476502676 0.11543585243040 
C4    C     0.36331464415101 0.75260054020334 0.25554859158008 
C5    C     0.29001160890692 0.78728742788202 0.38666781495440 
C6    C     0.55884299057312 0.93614644346812 0.34288773347319 
C7    C     0.55927949853764 0.87239488720067 0.98882218754571 
C8    C     0.46817816532853 0.74463721686564 0.95370151718670 
C9    C     0.36485103136046 0.68232313362637 0.26593287556433 
C10   C     0.23855222965923 0.85111933365024 0.34833079181789 
C11   C     0.25728831802078 0.75423175785977 0.55664278061844 
C12   C     0.62185484422562 0.96272751232617 0.19102936130189 
C13   C     0.62115289476384 0.93141017364496 0.01680572064343 
C14   C     0.56841346684500 0.83731358543945 0.81368220886273 
C15   C     0.52752275330090 0.77464377511137 0.79928082255546 
C16   C     0.44740976279450 0.67559185746869 0.95034385833860 
C17   C     0.40593727865143 0.64500721429112 0.10906234994802 
C18   C     0.17619390243915 0.88341193624205 0.49640436945357 
C19   C     0.32519611071314 0.65031779204578 0.43311643954935 
C20   C     0.23911837067973 0.88154449994055 0.16714734924857 
C21   C     0.27978947715956 0.68587692185093 0.57971638013547 
C22   C     0.19811303491009 0.78878913127016 0.70298470665695 
C23   C     0.16263256946603 0.85206484039634 0.67638454276706 
C24   C     0.18592715718895 0.94137979080419 0.13561173712772 
C25   C     0.12411432951339 0.94512568299654 0.46158438822213 
C26   C     0.12943544044202 0.97425052909335 0.28436003294353 
H1    H     0.45111135162501 0.85865721117461 0.43910568917816 
H2    H     0.56069735168802 0.95985150573644 0.48184074535963 
H3    H     0.67264313588718 0.00693360354754 0.21180031432064 
H4    H     0.67081590531549 0.95081317323059 0.89864439404577 
H5    H     0.61538026245006 0.85925823786871 0.69654836693547 
H6    H     0.54194747448077 0.74564549754244 0.67129463338119 
H7    H     0.47414991951059 0.64746006753238 0.82646333209066 
H8    H     0.40245838610031 0.59147962114160 0.11666787698068 
H9    H     0.33442952890176 0.59709950790467 0.44447056788103 
H10   H     0.28018155276297 0.85702803550298 0.04847620931236 
H11   H     0.25377201380078 0.66201315418706 0.71120685988290 
H12   H     0.18094786719520 0.76311966050081 0.83585741813254 
H13   H     0.11798638795312 0.87811427773531 0.78878566536991 
H14   H     0.18838134469551 0.96331631696546 0.99454214878102 
H15   H     0.07896346470758 0.96931657832331 0.57735988295415 
H16   H     0.09003773597800 0.02208989027791 0.26021213945864 
