data_stdin
_audit_creation_method 'critic2'
_audit_creation_date 2023-8-11
_chemical_formula_sum 'C26 H16'
_cell_formula_units_Z 8
_cell_length_a        10.2702496495
_cell_length_b         9.1249237406
_cell_length_c        37.0287262264
_cell_angle_alpha        90.0004
_cell_angle_beta        89.9935
_cell_angle_gamma        90.0001
_cell_volume          3470.156122
_space_group_crystal_system orthorhombic
_space_group_IT_number 61
_space_group_name_H-M_alt 'Pbca'
_space_group_name_Hall '-P 2ac 2ab'
loop_
_symmetry_equiv_pos_site_id
_symmetry_equiv_pos_as_xyz
 1 'x,y,z'
 2 '-x,-y,-z'
 3 '-1/2+x,-1/2-y,-z'
 4 '-1/2-x,-1/2+y,z'
 5 '-x,-1/2+y,-1/2-z'
 6 'x,-1/2-y,-1/2+z'
 7 '-1/2-x,-y,-1/2+z'
 8 '-1/2+x,y,-1/2-z'
loop_
_atom_site_label
_atom_site_type_symbol
_atom_site_fract_x
_atom_site_fract_y
_atom_site_fract_z
C1    C     0.62395851007908 0.79447892962001 0.40673402993636 
C2    C     0.52300204035850 0.86867846014042 0.42533723993096 
C3    C     0.47345274018204 0.01075056972732 0.41422013991600 
C4    C     0.50220001014228 0.07963461967695 0.37986281993134 
C5    C     0.52684673973868 0.00438181044686 0.34608465010996 
C6    C     0.67209735985133 0.66158539038491 0.41873232990114 
C7    C     0.47641895026489 0.80445605984777 0.45819817005860 
C8    C     0.40291507033104 0.09353389963719 0.44027596003318 
C9    C     0.50517418954354 0.23643595016540 0.37924843987910 
C10   C     0.47369561957588 0.86165242041934 0.33670521997176 
C11   C     0.59636149986244 0.08133396968725 0.31873577987291 
C12   C     0.62072451015835 0.59516845948549 0.44997391009354 
C13   C     0.52509660027287 0.66665198994252 0.46942565991585 
C14   C     0.38725713959337 0.88333845052116 0.48047733012189 
C15   C     0.35560572985426 0.02470122996164 0.47233063012784 
C16   C     0.38578440013394 0.24713913966439 0.43555173012799 
C17   C     0.44491228983252 0.31784885956589 0.40742250991140 
C18   C     0.51532083971233 0.79138308987338 0.30406522004148 
C19   C     0.56696078036746 0.31128653022338 0.35025788007514 
C20   C     0.37412566045210 0.79164354047290 0.35679422998568 
C21   C     0.61950518989913 0.23444775046484 0.32211151987078 
C22   C     0.63727718037614 0.00732052946042 0.28668056995346 
C23   C     0.60138737985050 0.86586758049623 0.27998242993675 
C24   C     0.32401029956732 0.65715853983348 0.34661888003085 
C25   C     0.46620925982646 0.65122223995673 0.29497887009066 
C26   C     0.37216206038005 0.58405195000187 0.31590941990438 
H1    H     0.66681576966649 0.84344788039291 0.38278896009454 
H2    H     0.75107770962532 0.60901155992152 0.40405831009131 
H3    H     0.65796809006840 0.48911748954038 0.45866916004054 
H4    H     0.48774425991871 0.62043017999568 0.49448787997325 
H5    H     0.35211326001184 0.83277221966620 0.50530820993125 
H6    H     0.29677249976665 0.08998568005779 0.49076133996241 
H7    H     0.33151807979866 0.30818805983143 0.45578848012039 
H8    H     0.44344805015534 0.43693123971699 0.40547971005808 
H9    H     0.57302145970954 0.43036298017320 0.35123507989173 
H10   H     0.33364436957039 0.84500145952475 0.38046129999286 
H11   H     0.67280911006906 0.29061376019354 0.30084389990193 
H12   H     0.69663218984413 0.06777895025107 0.26737899997412 
H13   H     0.63270212036958 0.81006254980298 0.25541119991249 
H14   H     0.24618108995679 0.60831260041469 0.36248138011850 
H15   H     0.50229003998963 0.59845087025763 0.27055727993599 
H16   H     0.33424075994762 0.47639361029315 0.30874991012877 
