data_stdin
_audit_creation_method 'critic2'
_audit_creation_date 2023-8-11
_chemical_formula_sum 'C26 H16'
_cell_formula_units_Z 4
_cell_length_a         7.0211621866
_cell_length_b        13.9750047315
_cell_length_c        22.1484774476
_cell_angle_alpha        66.2844
_cell_angle_beta        71.5316
_cell_angle_gamma        59.8702
_cell_volume          1702.663862
_space_group_crystal_system triclinic
_space_group_IT_number 2
_space_group_name_H-M_alt 'P-1'
_space_group_name_Hall '-P 1'
loop_
_symmetry_equiv_pos_site_id
_symmetry_equiv_pos_as_xyz
 1 'x,y,z'
 2 '-x,-y,-z'
loop_
_atom_site_label
_atom_site_type_symbol
_atom_site_fract_x
_atom_site_fract_y
_atom_site_fract_z
C1    C     0.08858454990037 0.47879909978484 0.42566676013783 
C2    C     0.89788466985071 0.52105388979524 0.07444855979492 
C3    C     0.96142046905070 0.41476248031421 0.45501917009530 
C4    C     0.70139773077639 0.58516300975206 0.04510531991419 
C5    C     0.80428649948208 0.43435715019522 0.42128207013378 
C6    C     0.51591752945715 0.56564908997010 0.07885327007487 
C7    C     0.88510979007529 0.58931915028538 0.33032158003682 
C8    C     0.72456635928065 0.41061714026106 0.16980581007768 
C9    C     0.76727211027361 0.51855504991580 0.35813241976376 
C10   C     0.52089642016034 0.48144328985316 0.14199868009065 
C11   C     0.62384647032049 0.52809893988739 0.32050195020126 
C12   C     0.32129629011956 0.47194886010156 0.17962675012788 
C13   C     0.61427787049280 0.59632163956249 0.25589420019633 
C14   C     0.31891519981049 0.40369412001335 0.24422774004327 
C15   C     0.84789270929982 0.67456145031457 0.26530051994547 
C16   C     0.72769290915025 0.32537169035948 0.23482356984950 
C17   C     0.73402084965518 0.66585260991171 0.22615888018348 
C18   C     0.51818046028300 0.33410199010539 0.27396054008926 
C19   C     0.75064851005413 0.72011630015009 0.15608399988817 
C20   C     0.50318166080858 0.27981093963167 0.34403340013214 
C21   C     0.88790482996269 0.77435356957418 0.12570104019179 
C22   C     0.68808684019730 0.22555228034277 0.37442280993949 
C23   C     0.93873475973355 0.75917736014527 0.23524114987625 
C24   C     0.92752926964626 0.24073243013971 0.26488916007333 
C25   C     0.98496622083894 0.79477761962995 0.16400274992666 
C26   C     0.90251357061457 0.20513391960026 0.33612673018721 
C27   C     0.12647095081625 0.85172524972569 0.13091838979337 
C28   C     0.09168808085662 0.14819857996948 0.36921413975384 
C29   C     0.21349772984277 0.87715150009656 0.16644475017001 
C30   C     0.30052705979347 0.12275448038980 0.33369289996872 
C31   C     0.98582658941598 0.81152840029897 0.27021145975578 
C32   C     0.14912694989412 0.18836251031228 0.22992445988511 
C33   C     0.13912411923555 0.86143746022540 0.23588464005278 
C34   C     0.33354876952283 0.13844044004652 0.26425597983894 
C35   C     0.21288549951507 0.90232126020809 0.26959276002132 
C36   C     0.55637617985405 0.09751220988386 0.23055409021212 
C37   C     0.12272921068170 0.90578032996239 0.33336056988138 
C38   C     0.60056283026575 0.09406741022398 0.16678268991299 
C39   C     0.94332304927671 0.87408649996500 0.36646275013992 
C40   C     0.42396350979713 0.12581717966758 0.13366795018084 
C41   C     0.87083142055991 0.82811470007588 0.33524235980749 
C42   C     0.19722634928829 0.17178066034076 0.16489439011345 
C43   C     0.67673599027459 0.81051012014700 0.36773330016783 
C44   C     0.03286864051699 0.18939686957830 0.13240594017352 
C45   C     0.56803176898361 0.83055888033580 0.42858393013998 
C46   C     0.08580425034212 0.16938986033278 0.07154397993249 
C47   C     0.64596026041758 0.87097666968917 0.46026507003752 
C48   C     0.30778843024291 0.12901375013952 0.03984831023673 
C49   C     0.82962746957643 0.89341491044863 0.42888541983513 
C50   C     0.47360753107742 0.10654982960000 0.07122814002953 
C51   C     0.04936870026435 0.56461563002233 0.36541575980179 
C52   C     0.90966134948900 0.43525952021612 0.13470729024402 
H1    H     0.21883169951776 0.46038549028707 0.45084765976410 
H2    H     0.04172527009785 0.53940580968384 0.04925973000043 
H3    H     0.99092110083666 0.34895488975359 0.50311059975252 
H4    H     0.69554052046459 0.65097784031830 0.99701738979986 
H5    H     0.70919732080889 0.38319568965947 0.44194089014821 
H6    H     0.35986485004061 0.61688194030623 0.05820342984236 
H7    H     0.53448282035725 0.47418320968073 0.34265451001055 
H8    H     0.16846090023842 0.52590786993527 0.15747703979053 
H9    H     0.51825398986391 0.59754065996390 0.22522418999930 
H10   H     0.16401758086930 0.40249754964858 0.27489644995634 
H11   H     0.66624941960532 0.70948266044855 0.12729642978521 
H12   H     0.33998885996895 0.29045582964709 0.37281312005067 
H13   H     0.92197050953506 0.80542968997555 0.07157389019983 
H14   H     0.67606296966914 0.19445519960327 0.42855027018158 
H15   H     0.16708744037973 0.87250491994059 0.07678815990679 
H16   H     0.06562509966517 0.12744940025531 0.42334262005390 
H17   H     0.32900162007274 0.91651668030712 0.14202110013393 
H18   H     0.44588056020785 0.08338758016776 0.35811789001880 
H19   H     0.34080604033240 0.93279162026602 0.24243454989943 
H20   H     0.69092350041974 0.06699547020858 0.25771803991568 
H21   H     0.17778547943647 0.93882452042868 0.35822838983777 
H22   H     0.77134556961327 0.06100021032568 0.14191663985117 
H23   H     0.60757004010753 0.78291477961164 0.34393264024593 
H24   H     0.86101233951893 0.21697114988770 0.15621831017185 
H25   H     0.41889742976679 0.81607829015619 0.45137228990825 
H26   H     0.95326646055191 0.18387856976489 0.04875651022893 
H27   H     0.56106446040951 0.88643158987694 0.50826543983549 
H28   H     0.34968627976311 0.11360314998990 0.99183533017915 
H29   H     0.88885144006162 0.92861391976809 0.45117604986384 
H30   H     0.64770094017098 0.07137879004788 0.04892424987964 
H31   H     0.15117607051157 0.61186541967135 0.34362489023833 
H32   H     0.06234308030705 0.38797931004422 0.15649583010455 
