data_stdin
_audit_creation_method 'critic2'
_audit_creation_date 2023-8-11
_chemical_formula_sum 'C26 H16'
_cell_formula_units_Z 2
_cell_length_a         7.0615118061
_cell_length_b        12.7260377692
_cell_length_c        13.7774437189
_cell_angle_alpha        58.6004
_cell_angle_beta        59.1840
_cell_angle_gamma        56.3160
_cell_volume           834.766692
_space_group_crystal_system triclinic
_space_group_IT_number 1
_space_group_name_H-M_alt 'P1'
_space_group_name_Hall 'P 1'
loop_
_symmetry_equiv_pos_site_id
_symmetry_equiv_pos_as_xyz
 1 'x,y,z'
loop_
_atom_site_label
_atom_site_type_symbol
_atom_site_fract_x
_atom_site_fract_y
_atom_site_fract_z
C1    C     0.31981351066226 0.13562235954592 0.65750338999513 
C2    C     0.40641219016779 0.86436445966765 0.34249845003432 
C3    C     0.28168395924084 0.08133146034490 0.60551687017010 
C4    C     0.15584361028106 0.91864315990640 0.39449644013456 
C5    C     0.06469496089881 0.14120822955245 0.58643706021659 
C6    C     0.02042867017728 0.85872648982843 0.41362784987294 
C7    C     0.91452832944773 0.31037854004082 0.67404494027758 
C8    C     0.38355750992429 0.68956927016721 0.32600709006358 
C9    C     0.87976235055219 0.25651083969440 0.61806884040915 
C10   C     0.12923004986929 0.74340635973331 0.38201869036811 
C11   C     0.66516300070254 0.32333190951704 0.58798721018968 
C12   C     0.98811612969503 0.67654125001035 0.41214799012237 
C13   C     0.50413635033620 0.44564587996929 0.60042476008293 
C14   C     0.09649109022594 0.55422670991869 0.39970276040533 
C15   C     0.72876658995840 0.43340354975630 0.69946315007877 
C16   C     0.49455268948578 0.56654938012545 0.30058290030013 
C17   C     0.53984214014307 0.50623249995471 0.64916170987071 
C18   C     0.35072835010245 0.49368101011122 0.35091078997150 
C19   C     0.39270423049753 0.64277913989582 0.64076359004535 
C20   C     0.45983668040168 0.35713696999622 0.35928416959778 
C21   C     0.44635935014843 0.70838126944726 0.67037944041152 
C22   C     0.70384451051170 0.29157247011231 0.32964264996306 
C23   C     0.74008121983404 0.49460634007934 0.75917209960982 
C24   C     0.74756170017649 0.50538970981383 0.24083217964835 
C25   C     0.62602254941043 0.63710749999418 0.72640738998781 
C26   C     0.85295922990669 0.36288911055259 0.27359796955410 
C27   C     0.69260657061464 0.70607904985092 0.75058518977519 
C28   C     0.10576850889526 0.29397895017024 0.24939675028885 
C29   C     0.85958404977959 0.63712356018720 0.80808462009616 
C30   C     0.24974969021288 0.36299394024607 0.19185325021542 
C31   C     0.85797031997889 0.42459500012065 0.84852761958334 
C32   C     0.90400920948255 0.57545005025733 0.15143382009886 
C33   C     0.93856535968078 0.49551059044602 0.86203874996975 
C34   C     0.15340086944213 0.50459927027139 0.13787066007067 
C35   C     0.08895288019858 0.42552527995265 0.93486970960579 
C36   C     0.30938139987495 0.57463714010838 0.06494666997718 
C37   C     0.13456174991366 0.29400016046933 0.00313235968380 
C38   C     0.22838913951788 0.70615264026831 0.99668186040625 
C39   C     0.01637816015643 0.22683380004779 0.01125340023304 
C40   C     0.99210079987159 0.77326204967462 0.98865837986269 
C41   C     0.87577477961495 0.29151467009156 0.93430327013888 
C42   C     0.82709546032748 0.70851444977797 0.06566723004853 
C43   C     0.74368359962412 0.22626390001733 0.95356146035407 
C44   C     0.60302025934826 0.77367871998430 0.04646850012336 
C45   C     0.75347084045167 0.10318012011795 0.04165549003677 
C46   C     0.54269111984429 0.89676055050036 0.95839849989596 
C47   C     0.89942847021599 0.03786686991181 0.11391930993257 
C48   C     0.70238739927341 0.96216375012713 0.88610563003667 
C49   C     0.02814965966475 0.09948502011565 0.09871681002047 
C50   C     0.92395306053346 0.90061768941265 0.90122909038575 
C51   C     0.14094016045704 0.24714763988999 0.69057327970491 
C52   C     0.51659343975834 0.75282723029857 0.30944555979858 
H1    H     0.49254346975228 0.09114312956431 0.67010669033848 
H2    H     0.51540293875586 0.90886717025996 0.32987284032108 
H3    H     0.42423064908726 0.99484749025498 0.57784615009861 
H4    H     0.07018439994956 0.00514829994121 0.42213944025220 
H5    H     0.03386335979685 0.10242099017662 0.54382313042370 
H6    H     0.82689033054363 0.89749577970544 0.45626972003310 
H7    H     0.63882219997132 0.27954198034481 0.54813786028501 
H8    H     0.79459039013177 0.72030155025543 0.45202938022388 
H9    H     0.34776554026597 0.50113548987049 0.57049280043492 
H10   H     0.99124369031340 0.49870760029578 0.42967195988710 
H11   H     0.24862056081554 0.69546886999775 0.60269611987594 
H12   H     0.34503029096204 0.30442025984607 0.39735938978719 
H13   H     0.34724157027824 0.81552438991067 0.65494398001198 
H14   H     0.78811212934250 0.18442901030252 0.34506731039325 
H15   H     0.61001300057735 0.81502475980961 0.72130937991949 
H16   H     0.18252447021243 0.18503152977783 0.27868239001684 
H17   H     0.91957072056102 0.68939974958511 0.82187733991142 
H18   H     0.44182195058073 0.31076618972668 0.17803091018764 
H19   H     0.16319196992874 0.48024926023489 0.93611843966432 
H20   H     0.49556012018594 0.51995970975069 0.06361937040937 
H21   H     0.24959066031992 0.24127406970481 0.05813378021833 
H22   H     0.34790318075999 0.75891362970082 0.94160778964385 
H23   H     0.62709278044786 0.27506708024397 0.90026557984804 
H24   H     0.47756495030356 0.72480574977120 0.09978605972395 
H25   H     0.64826386109419 0.05624277984124 0.05469760961602 
H26   H     0.36971074017100 0.94363205965542 0.94539167968721 
H27   H     0.91162698992826 0.93947634010844 0.18113618023000 
H28   H     0.65210974024107 0.06056047955627 0.81891843993529 
H29   H     0.13959831918966 0.05080874038117 0.15493249008997 
H30   H     0.05037590950553 0.94934966008039 0.84497382038222 
H31   H     0.17885625011782 0.28929048982167 0.72655908960245 
H32   H     0.71068070020562 0.71069940967740 0.27344464993685 
