data_stdin
_audit_creation_method 'critic2'
_audit_creation_date 2023-8-11
_chemical_formula_sum 'C26 H16'
_cell_formula_units_Z 4
_cell_length_a         7.6075337408
_cell_length_b        13.3702923857
_cell_length_c        18.1683345193
_cell_angle_alpha        93.3311
_cell_angle_beta       114.7084
_cell_angle_gamma        82.0574
_cell_volume          1662.696679
_space_group_crystal_system triclinic
_space_group_IT_number 2
_space_group_name_H-M_alt 'P-1'
_space_group_name_Hall '-P 1'
loop_
_symmetry_equiv_pos_site_id
_symmetry_equiv_pos_as_xyz
 1 'x,y,z'
 2 '-x,-y,-z'
loop_
_atom_site_label
_atom_site_type_symbol
_atom_site_fract_x
_atom_site_fract_y
_atom_site_fract_z
C1    C     0.08106365956592 0.22451087996982 0.37468071972420 
C2    C     0.83162469998829 0.72466587977130 0.12548539010444 
C3    C     0.88276658052154 0.21358054999132 0.32915353996896 
C4    C     0.72439494042755 0.71377006987554 0.17108929000563 
C5    C     0.74727267960068 0.25388552033414 0.35845546998931 
C6    C     0.53033757041950 0.75390906970223 0.14180951973105 
C7    C     0.00853156038261 0.30735793991770 0.48392409028731 
C8    C     0.54075653016531 0.80722771967638 0.01625253978137 
C9    C     0.80553930056514 0.30335765996162 0.43453182996600 
C10   C     0.43650969978305 0.80321731014571 0.06569943003868 
C11   C     0.66359504964314 0.35305540985277 0.46100890012653 
C12   C     0.24161354963929 0.85274973003881 0.03924184025140 
C13   C     0.71931967009587 0.41225491030282 0.52869199024073 
C14   C     0.16201534010093 0.91186585004343 0.97154780015838 
C15   C     0.06741485929974 0.35762783979991 0.56204708976995 
C16   C     0.44349328013955 0.85741561034784 0.93812857015604 
C17   C     0.92020628976553 0.42011760967102 0.57803551997323 
C18   C     0.26431006008309 0.91980941004024 0.92218519972327 
C19   C     0.97233397038925 0.49325942036811 0.64127603992883 
C20   C     0.19004844063952 0.99293980974280 0.85897891993851 
C21   C     0.16309487089624 0.50902835992302 0.68284353024889 
C22   C     0.29771339982838 0.00877575003435 0.81738320989040 
C23   C     0.26755410057584 0.35606498968101 0.62108742013518 
C24   C     0.52562884081266 0.85588892994996 0.87904400017010 
C25   C     0.31420154001929 0.44203007963380 0.67297239009290 
C26   C     0.46853245016088 0.94183697990759 0.82718310998027 
C27   C     0.51179463962491 0.45990732993072 0.71525184017612 
C28   C     0.58159629017509 0.95976436996084 0.78486695994428 
C29   C     0.65879677049776 0.39345771998217 0.70900748023276 
C30   C     0.74107831944115 0.89337324000753 0.79104767988712 
C31   C     0.42403940944446 0.27529830036388 0.63220119976964 
C32   C     0.65994623945576 0.77517507989444 0.86787229971346 
C33   C     0.61943820982642 0.29853045002745 0.67005329971796 
C34   C     0.77964042031271 0.79845057976194 0.82997721020484 
C35   C     0.77640411997702 0.22573898983749 0.67050561974832 
C36   C     0.93572361935813 0.72571305993528 0.82947263982531 
C37   C     0.74455898040774 0.13120539021330 0.63942401002608 
C38   C     0.96607315957014 0.63119011028382 0.86054363989199 
C39   C     0.55582890976976 0.09962529966128 0.61303218014875 
C40   C     0.83015596001717 0.59955633003924 0.88697335986633 
C41   C     0.39611320993836 0.17000297992919 0.61328878014917 
C42   C     0.66991723933054 0.66987885975728 0.88677371988954 
C43   C     0.22158099026955 0.13099415028246 0.60043402977025 
C44   C     0.52114426024427 0.63081508033798 0.89965337021734 
C45   C     0.20138744064967 0.03003565981909 0.58279480028290 
C46   C     0.53626135977685 0.52985220969456 0.91725786982984 
C47   C     0.35249851950369 0.96357273971976 0.57444244990180 
C48   C     0.70406644979567 0.46344833995793 0.92555948994533 
C49   C     0.52751461069084 0.99812739998915 0.59028285025536 
C50   C     0.84737242994558 0.49805760992482 0.90969834977574 
C51   C     0.14208205055684 0.26945879997173 0.45028008999919 
C52   C     0.74151129966006 0.76945161998072 0.04985245021223 
H1    H     0.18742399981564 0.19873696017550 0.34988496009786 
H2    H     0.98751071063528 0.69899387998396 0.15024835005754 
H3    H     0.83516943960513 0.17524006019923 0.27078445971633 
H4    H     0.79351219011448 0.67558358992938 0.22949777003700 
H5    H     0.59252610963018 0.24948749990092 0.32228708013921 
H6    H     0.44790787945796 0.74951581983017 0.17802167979437 
H7    H     0.50987190034593 0.34697286002012 0.42400241984932 
H8    H     0.16185236965028 0.84661822987307 0.07627138000655 
H9    H     0.61149679034398 0.45437391000640 0.54718499995971 
H10   H     0.01719163002262 0.95386494979946 0.95306211971815 
H11   H     0.85709548022659 0.54104004011515 0.65187457992352 
H12   H     0.05364087054736 0.04066613018921 0.84843768009090 
H13   H     0.20330586014904 0.57153458968807 0.72524386986393 
H14   H     0.25318467957043 0.07128638993968 0.77501631990375 
H15   H     0.54305928054158 0.52831141983744 0.75140449990012 
H16   H     0.54058206028264 0.02816623008093 0.74874461970218 
H17   H     0.80898896967433 0.41013794008744 0.73731409021063 
H18   H     0.83467183982456 0.91010151978199 0.76271948977053 
H19   H     0.92263417960983 0.24791653986252 0.69570158981058 
H20   H     0.03155635980765 0.74792186971508 0.80424688016455 
H21   H     0.86395249049198 0.07674951979938 0.63822371003981 
H22   H     0.08787778033669 0.57677665993414 0.86170284987184 
H23   H     0.10185955967432 0.18116524010394 0.60541649029240 
H24   H     0.39145951983225 0.68094532026461 0.89470117017563 
H25   H     0.06761178061570 0.00129895978367 0.57496219999598 
H26   H     0.41816736949271 0.50106583029258 0.92508530981032 
H27   H     0.33212362002202 0.88525660976193 0.55748096016997 
H28   H     0.71763316954225 0.38512914971592 0.94249416971027 
H29   H     0.64844872033668 0.94731195014571 0.58669342999019 
H30   H     0.97546964031205 0.44728092962341 0.91323725024339 
H31   H     0.29549904991068 0.27784473011881 0.48388525002849 
H32   H     0.82771922936909 0.77781496008871 0.01619321969984 
