data_stdin
_audit_creation_method 'critic2'
_audit_creation_date 2023-8-11
_chemical_formula_sum 'C26 H16'
_cell_formula_units_Z 4
_cell_length_a         7.1531597402
_cell_length_b        14.8018768667
_cell_length_c        19.3056786972
_cell_angle_alpha        79.7039
_cell_angle_beta        68.3052
_cell_angle_gamma        61.0799
_cell_volume          1662.446964
_space_group_crystal_system triclinic
_space_group_IT_number 1
_space_group_name_H-M_alt 'P1'
_space_group_name_Hall 'P 1'
loop_
_symmetry_equiv_pos_site_id
_symmetry_equiv_pos_as_xyz
 1 'x,y,z'
loop_
_atom_site_label
_atom_site_type_symbol
_atom_site_fract_x
_atom_site_fract_y
_atom_site_fract_z
C1    C     0.15950469025617 0.51772285019111 0.42515272012118 
C2    C     0.19458924958502 0.98222402983366 0.92515572003318 
C3    C     0.51011492983668 0.01799624962061 0.07479860020490 
C4    C     0.54599511015913 0.48197895988885 0.57477018018263 
C5    C     0.07900104021155 0.44813268019051 0.42422282978962 
C6    C     0.97483823910123 0.05184661025909 0.92421345026721 
C7    C     0.42790234003289 0.94835341985887 0.07571095025468 
C8    C     0.32439963960387 0.55163263004948 0.57569092989210 
C9    C     0.88678002985173 0.48332024982019 0.40525181021344 
C10   C     0.85298642973743 0.01669192012789 0.90524077982537 
C11   C     0.19784188000147 0.98347434002747 0.09470511996963 
C12   C     0.16460570944456 0.51652527003483 0.59469351996465 
C13   C     0.84646950123207 0.66012829969788 0.39003211973323 
C14   C     0.16644155949673 0.83985696007779 0.89002821003980 
C15   C     0.12688888958478 0.16033147008650 0.10994776972425 
C16   C     0.44758742946281 0.33966167986039 0.60992839001042 
C17   C     0.77013561018384 0.58818253971084 0.38685304987043 
C18   C     0.94613126051765 0.91183120998745 0.88684937011217 
C19   C     0.04435525014254 0.08832086031261 0.11314089996187 
C20   C     0.22093392925431 0.41168435028730 0.61312448995089 
C21   C     0.58303479951074 0.62175218027263 0.36135449992563 
C22   C     0.82616383979953 0.87828564016935 0.86135812994582 
C23   C     0.80640762995183 0.12179461966579 0.13868466992777 
C24   C     0.04995506958152 0.37823063994400 0.63866345000544 
C25   C     0.49914058999177 0.71673862002929 0.32949032015091 
C26   C     0.93232011977095 0.78329850963862 0.82949236019688 
C27   C     0.65881491902909 0.21678998027843 0.17052717003542 
C28   C     0.09246261962281 0.28323645990640 0.67049735014435 
C29   C     0.73036054965503 0.76647616971610 0.36758236008173 
C30   C     0.26311697974720 0.73351495018532 0.86757338997979 
C31   C     0.96585609018483 0.26667139004290 0.13240246019168 
C32   C     0.49936398015411 0.23332507987415 0.63237342990911 
C33   C     0.58151812966858 0.78830581968299 0.32741676019224 
C34   C     0.15793369991942 0.71170901975491 0.82740682989429 
C35   C     0.73688730994778 0.28843790031182 0.17255747989873 
C36   C     0.31393345942855 0.21157416981857 0.67252044021250 
C37   C     0.51994445958148 0.87965955022393 0.28375071007283 
C38   C     0.27917070949829 0.62035869989767 0.78373245995447 
C39   C     0.58799640046945 0.37981029995605 0.21619822994755 
C40   C     0.34788593955524 0.12019789973309 0.71614488009462 
C41   C     0.61301494985119 0.94398534996318 0.27717699023827 
C42   C     0.50098365946887 0.55601739007982 0.77715187986798 
C43   C     0.66776033015504 0.44420339023118 0.22278740972254 
C44   C     0.55651907034986 0.05578622981357 0.72272968980112 
C45   C     0.77417192010419 0.84861677023303 0.37650661003526 
C46   C     0.47130579935878 0.65135665002186 0.87649264997557 
C47   C     0.02731316981111 0.34886375011271 0.12350733984168 
C48   C     0.72531728974729 0.15112074989760 0.62347699997989 
C49   C     0.74384508030717 0.92959927036734 0.32238060981120 
C50   C     0.60304366079176 0.57037826985355 0.82235887985823 
C51   C     0.88879977007722 0.42985264011468 0.17763340011279 
C52   C     0.74885673066829 0.07012628961954 0.67759019000774 
C53   C     0.84493819999965 0.99520746000810 0.31394558024643 
C54   C     0.83544496963378 0.50475793031724 0.81392630001484 
C55   C     0.97284912088027 0.49552405966625 0.18611577986528 
C56   C     0.96432911075948 0.00443147964343 0.68607727003951 
C57   C     0.96396722916840 0.98372253036408 0.35912943993142 
C58   C     0.93148685047121 0.51624195990725 0.85911258988353 
C59   C     0.18204129962101 0.48408762017920 0.14097905988372 
C60   C     0.15065244050780 0.01586618985232 0.64096213015708 
C61   C     0.84416449090172 0.85642536967152 0.43571323988524 
C62   C     0.55691175940612 0.64354247013359 0.93570127015384 
C63   C     0.21543884955508 0.35673519966622 0.06433470013381 
C64   C     0.92922497960146 0.14324993988814 0.56432032997614 
C65   C     0.95793059011391 0.91768850962028 0.42245171991414 
C66   C     0.79329132977495 0.58228121003637 0.92243782027378 
C67   C     0.30254781027410 0.41805278967731 0.07764821972783 
C68   C     0.13903180055215 0.08192480979659 0.57764752016340 
C69   C     0.05635806956783 0.91797404029711 0.47462050975338 
C70   C     0.89227027032607 0.58201436011074 0.97460583987597 
C71   C     0.50503945047179 0.41841212970442 0.02551414992239 
C72   C     0.34224665005959 0.08159956015916 0.52554720011388 
C73   C     0.02063732091827 0.86996353962932 0.54194535998216 
C74   C     0.76044047018400 0.63004528003122 0.04192698026441 
C75   C     0.60380243990426 0.37043218011777 0.95816793011743 
C76   C     0.34501697036627 0.12961529002967 0.45821496023546 
C77   C     0.87153151954426 0.82424671969680 0.56344159015107 
C78   C     0.51983281946149 0.67576041021039 0.06342489989230 
C79   C     0.49777878064877 0.32466316993726 0.93661981009495 
C80   C     0.14744111076357 0.17537420982529 0.43664077983590 
C81   C     0.78183966938830 0.81656377038260 0.51075006023593 
C82   C     0.41478318948255 0.68341345965572 0.01073610020744 
C83   C     0.30299287007864 0.31690099994984 0.98927835976552 
C84   C     0.93710854006210 0.18310680978602 0.48927004979711 
C85   C     0.61837173962021 0.77936484012939 0.53748825972854 
C86   C     0.17686780934525 0.72059408035255 0.03747328025508 
C87   C     0.19304476910193 0.27966045000317 0.96249093021902 
C88   C     0.75267159007453 0.22035993005685 0.46245905995246 
C89   C     0.55238834906827 0.74875366015489 0.61080750011653 
C90   C     0.04959955982538 0.75122314030099 0.11079060973679 
C91   C     0.27348747051500 0.24907360989554 0.88915675992184 
C92   C     0.77196462989904 0.25096761010266 0.38912680987897 
C93   C     0.64625477991078 0.75376285026520 0.66174760012257 
C94   C     0.15346807943361 0.74625230016867 0.16172680974433 
C95   C     0.46897521042594 0.25414208993933 0.83825267019886 
C96   C     0.97761625000962 0.24591286990074 0.33825095985990 
C97   C     0.80293403896712 0.79131658011153 0.63795790025977 
C98   C     0.38530406971481 0.70871332023409 0.13793823012854 
C99   C     0.57800995900031 0.29174806023345 0.86208894009183 
C100  C     0.16186268039451 0.20830976977790 0.36211309990317 
C101  C     0.04493425059043 0.62118668969941 0.40918041972490 
C102  C     0.28702175076708 0.87876448010903 0.90918111978800 
C103  C     0.36355778940504 0.12144917024753 0.09078657983029 
C104  C     0.60645992964643 0.37853121968307 0.59076294013801 
H1    H     0.31204845921138 0.48981675994375 0.43948780015778 
H2    H     0.29131570044140 0.01010215970849 0.93950091981003 
H3    H     0.69124808036853 0.99013960989011 0.06045682003863 
H4    H     0.67140789082392 0.50981933004751 0.56041690980536 
H5    H     0.16699024067679 0.36726041972405 0.43836742016339 
H6    H     0.90104993028211 0.13272021999955 0.93834472995672 
H7    H     0.54423023917642 0.86749571011914 0.06153771012772 
H8    H     0.27890465048859 0.63248782963675 0.56151882988071 
H9    H     0.82444892019556 0.43012443974356 0.40313113996367 
H10   H     0.68421031961816 0.06991134975923 0.90311528022347 
H11   H     0.13136478098835 0.93024565973567 0.09682011992335 
H12   H     0.99160190966603 0.56976155029555 0.59681140001675 
H13   H     0.51863039038684 0.56761631007412 0.36390908018881 
H14   H     0.65341330888198 0.93243190032239 0.86392188027262 
H15   H     0.74722125063934 0.06758804021769 0.13617652984215 
H16   H     0.88228447025690 0.43244587992645 0.63615875018189 
H17   H     0.36692180043401 0.74033378990001 0.30513100998760 
H18   H     0.84727482983323 0.75972142964354 0.80514191983566 
H19   H     0.47801902953149 0.24032591032828 0.19491755012551 
H20   H     0.95875837893678 0.25970973034041 0.69488532018467 
H21   H     0.40863739927957 0.89422728002886 0.25250755008035 
H22   H     0.19700675975049 0.60580071974699 0.75248778027245 
H23   H     0.41435399025683 0.39433637989486 0.24740967996535 
H24   H     0.20330412031558 0.10567744989424 0.74734705008651 
H25   H     0.58245532925544 0.00906377012551 0.23890490024075 
H26   H     0.60065112931607 0.49094447981439 0.73887015017860 
H27   H     0.56069706994745 0.50931179037077 0.26103164003945 
H28   H     0.57975914997946 0.99066934037602 0.76096010988681 
H29   H     0.82908872039834 0.05321766003218 0.27005295018955 
H30   H     0.93570093994992 0.44674542962472 0.77003091987524 
H31   H     0.86924103940450 0.55353926969196 0.23000848020137 
H32   H     0.97678799074004 0.94640659974748 0.72995889004122 
H33   H     0.05008720999963 0.03045664963528 0.35099657993560 
H34   H     0.11114313942546 0.46951015018369 0.85097413027081 
H35   H     0.25179060025615 0.53086223007580 0.14914926011535 
H36   H     0.31399944015213 0.96908030987922 0.64913972986817 
H37   H     0.15677553994761 0.95943019998791 0.45992436005609 
H38   H     0.07565764053477 0.54056217968003 0.95991258016276 
H39   H     0.57596805933255 0.45991164988845 0.04025554020998 
H40   H     0.49620104965697 0.04010934991538 0.54030459974297 
H41   H     0.09354439027126 0.87173213963197 0.58186442988780 
H42   H     0.83686661931102 0.62829243032069 0.08184760982870 
H43   H     0.75632607983777 0.37226468022110 0.91827466976373 
H44   H     0.50120286081918 0.12781839979201 0.41834674990118 
H45   H     0.53725451009471 0.77769055988529 0.50037141027431 
H46   H     0.09243053954809 0.72223586020123 0.00035558010083 
H47   H     0.03789636002179 0.27793396998037 0.99958343986039 
H48   H     0.59405114014399 0.22208350015057 0.49953189982260 
H49   H     0.42423556970936 0.72179782028634 0.62978566007826 
H50   H     0.86750293022764 0.77815938016848 0.12977085021401 
H51   H     0.18332230019206 0.22208723000998 0.87014105979198 
H52   H     0.62782587995893 0.27796589979223 0.37009084021650 
H53   H     0.59324905968667 0.72942242014685 0.71926178008609 
H54   H     0.05173235065292 0.77060548985530 0.21923945991375 
H55   H     0.53087094972732 0.22980057996214 0.78072991976268 
H56   H     0.99084523003498 0.27026593027110 0.28072884979449 
H57   H     0.87449929993382 0.79812727981176 0.67660691975553 
H58   H     0.47048396049230 0.70192793970232 0.17658591004896 
H59   H     0.72665882988506 0.29861304033736 0.82346491986708 
H60   H     0.32426102076055 0.20146575007130 0.32351246974606 
H61   H     0.11077642952868 0.67317579034699 0.41038198013376 
H62   H     0.45690338004605 0.82675393038020 0.91038204013205 
H63   H     0.43170987015076 0.17347544037225 0.08958360986145 
H64   H     0.77873337052630 0.32650142975355 0.58956010999840 
