data_stdin
_audit_creation_method 'critic2'
_audit_creation_date 2023-8-11
_chemical_formula_sum 'C26 H16'
_cell_formula_units_Z 8
_cell_length_a         9.5527055819
_cell_length_b        19.5544202253
_cell_length_c        22.6390392172
_cell_angle_alpha        78.1379
_cell_angle_beta       114.9237
_cell_angle_gamma       119.1824
_cell_volume          3348.299072
_space_group_crystal_system triclinic
_space_group_IT_number 2
_space_group_name_H-M_alt 'P-1'
_space_group_name_Hall '-P 1'
loop_
_symmetry_equiv_pos_site_id
_symmetry_equiv_pos_as_xyz
 1 'x,y,z'
 2 '-x,-y,-z'
loop_
_atom_site_label
_atom_site_type_symbol
_atom_site_fract_x
_atom_site_fract_y
_atom_site_fract_z
C1    C     0.18587137000085 0.88797889464404 0.71010320971370 
C2    C     0.76615729025301 0.88811675668336 0.78993134026568 
C3    C     0.40975959472645 0.61170914875694 0.20988530437011 
C4    C     0.98991242680008 0.61202889731059 0.28977054641192 
C5    C     0.29213589422099 0.95052826916302 0.68095713552333 
C6    C     0.93065731567397 0.95063832064152 0.81909355906664 
C7    C     0.39081138170580 0.54912376826657 0.18066675951824 
C8    C     0.02937426321588 0.54942560180967 0.31888097220201 
C9    C     0.22217729932085 0.99289648049767 0.63166282850079 
C10   C     0.95918948645892 0.99301425074779 0.86838460567690 
C11   C     0.23611129371984 0.50681773836531 0.13142671147820 
C12   C     0.97319376653893 0.50702191262853 0.36814302469906 
C13   C     0.93401280194962 0.90723396524263 0.63589903574002 
C14   C     0.66258670194015 0.90740159494872 0.86413828978802 
C15   C     0.11949245976742 0.59263722948176 0.13581224402362 
C16   C     0.84788752896114 0.59277072836471 0.36399114433739 
C17   C     0.04503197310414 0.97398970515967 0.60950799611283 
C18   C     0.82629000528261 0.97415050475721 0.89052682746292 
C19   C     0.09688549066306 0.52582528072927 0.10937781950153 
C20   C     0.87811749258007 0.52594778542447 0.39032865103703 
C21   C     0.97902743761090 0.02381747632986 0.56430271184383 
C22   C     0.85046494148341 0.02397178736352 0.93569923649249 
C23   C     0.93127108264072 0.47606695972502 0.06422374066927 
C24   C     0.80280574098844 0.47613098931600 0.43550010713686 
C25   C     0.81727544888527 0.01326763151008 0.55221514351758 
C26   C     0.71279309633292 0.01342601917662 0.94774698829072 
C27   C     0.79079044308824 0.48675742420598 0.05220016380954 
C28   C     0.68638502336970 0.48676644637648 0.44761338866639 
C29   C     0.75178645126532 0.88756687186767 0.61191354680678 
C30   C     0.52827510298763 0.88771508078763 0.88812516748645 
C31   C     0.97674547777544 0.61244793468790 0.11188171803032 
C32   C     0.75301417784801 0.61250921772567 0.38801148207553 
C33   C     0.70333979558383 0.94718536548755 0.57788828250235 
C34   C     0.54762069376998 0.94732556634959 0.92208592470652 
C35   C     0.80913442283798 0.55292117692182 0.07788475793688 
C36   C     0.65335662896626 0.55293180868220 0.42199632591751 
C37   C     0.54395535317921 0.94214186794539 0.57155146031066 
C38   C     0.40075489348681 0.94221940397840 0.92836222374609 
C39   C     0.66004161835861 0.55814157888034 0.07158557001787 
C40   C     0.51683796912197 0.55812495193054 0.42832339459207 
C41   C     0.43724793004543 0.88083880537153 0.59821170869284 
C42   C     0.24088822465897 0.88087709007145 0.90167839634775 
C43   C     0.67609174007144 0.61951609179019 0.09828747035536 
C44   C     0.47945160457264 0.61947551141059 0.40159509684638 
C45   C     0.62056946991222 0.81462407053616 0.62524571014707 
C46   C     0.37059396388808 0.81471475858061 0.87484325674276 
C47   C     0.99153316021465 0.68547577062814 0.12522264117158 
C48   C     0.74116658313070 0.68553810536299 0.37471307189168 
C49   C     0.47236712666294 0.81599146180319 0.62541687575242 
C50   C     0.22188594848735 0.81602269605163 0.87456404041862 
C51   C     0.84083301749987 0.68427175073214 0.12546535823662 
C52   C     0.58988013280282 0.68427823694645 0.37441995703064 
C53   C     0.36176778478399 0.75321880389958 0.65395148602708 
C54   C     0.05443477008973 0.75317608457751 0.84603909487193 
C55   C     0.85593959889619 0.74712829811684 0.15402827036365 
C56   C     0.54793654159939 0.74713508158883 0.34584482496052 
C57   C     0.39601068626644 0.69115100493248 0.68134503744627 
C58   C     0.03431700033749 0.69107052533474 0.81882785062731 
C59   C     0.01423165301686 0.80913384581543 0.18134385078888 
C60   C     0.65183278822687 0.80919928324790 0.31861355797636 
C61   C     0.62727031125279 0.74039019232029 0.63865986725800 
C62   C     0.35089349064395 0.74050611025294 0.86159692474735 
C63   C     0.14658946590105 0.75963046993544 0.13857535162638 
C64   C     0.86964626012694 0.75971334202729 0.36143607707580 
C65   C     0.52626518486456 0.68248535381575 0.67309728855768 
C66   C     0.18123858790298 0.68247641683515 0.82722567599392 
C67   C     0.16154783478525 0.81764049612377 0.17301219338996 
C68   C     0.81587475773097 0.81774802775864 0.32701899971556 
C69   C     0.54990739426723 0.61383815660617 0.69695834197004 
C70   C     0.15752606198344 0.61380440658118 0.80353367523926 
C71   C     0.32235450438593 0.88623479247537 0.19679417066447 
C72   C     0.92925368077461 0.88637870571687 0.30328617302711 
C73   C     0.65985980560623 0.59952190585998 0.68362908739605 
C74   C     0.29430065435580 0.59960405275549 0.81694370766836 
C75   C     0.46069824967115 0.90038647287318 0.18341131558951 
C76   C     0.09433997088863 0.90053056651507 0.31669240493099 
C77   C     0.74153169623116 0.64956130850715 0.64020526697840 
C78   C     0.46263281246694 0.64981154869661 0.86027618613843 
C79   C     0.44216282046433 0.85021688844990 0.14001744908143 
C80   C     0.16240918156570 0.85031353137650 0.36005211561126 
C81   C     0.71923295817175 0.71843467509524 0.61484056366875 
C82   C     0.49070567056649 0.71870811976715 0.88549223564565 
C83   C     0.28219687085275 0.78141441999530 0.11470258337579 
C84   C     0.05294499656839 0.78147251117445 0.38532453622540 
C85   C     0.77890041414073 0.75892201497922 0.56411323984434 
C86   C     0.65173539425503 0.75940508013474 0.93610936831630 
C87   C     0.26072918912239 0.74081721725746 0.06398027530772 
C88   C     0.13271283361609 0.74079045502048 0.43598232934787 
C89   C     0.86569809431380 0.73635808357263 0.54246382732055 
C90   C     0.78210535063978 0.73704886953532 0.95775577309385 
C91   C     0.39242542999578 0.76319752202920 0.04229624128342 
C92   C     0.30769199336382 0.76311296716376 0.45762076305202 
C93   C     0.89848615288891 0.67194205983432 0.57115035394785 
C94   C     0.75784492368792 0.67260066745569 0.92920932241067 
C95   C     0.55398080880188 0.82752568638882 0.07094693519368 
C96   C     0.41207357292556 0.82748599402954 0.42901251143624 
C97   C     0.83608276145422 0.62924470744936 0.61888492756337 
C98   C     0.60003804368137 0.62967027936199 0.88162260455023 
C99   C     0.57713209884465 0.87033188642185 0.11867455527462 
C100  C     0.33998469030891 0.87039675244409 0.38137192620925 
C101  C     0.01118911575155 0.86677259198349 0.68779203397577 
C102  C     0.63606457321035 0.86693027904416 0.81225028632580 
C103  C     0.27758686687966 0.63302355716715 0.18766714934350 
C104  C     0.90221520371797 0.63325423438507 0.31211286499934 
H1    H     0.24110453943422 0.85628680594785 0.75070305980153 
H2    H     0.74027778987655 0.85643801947505 0.74932366580169 
H3    H     0.52838545748497 0.64334025419098 0.25046014180959 
H4    H     0.02734319141162 0.64373176842307 0.24917958363243 
H5    H     0.42874988020657 0.96548986756270 0.69813499609428 
H6    H     0.03295947832003 0.96557315570772 0.80192151130410 
H7    H     0.49742568004483 0.53408363247690 0.19775563242154 
H8    H     0.10175516306944 0.53444917359722 0.30168054367476 
H9    H     0.30260472977944 0.04310169294494 0.60977319090501 
H10   H     0.08338245546209 0.04319269737984 0.89026875849605 
H11   H     0.21604206476250 0.45658632701471 0.10948998490994 
H12   H     0.99698192827073 0.45676864996883 0.38997197575664 
H13   H     0.06417472367807 0.07345186995814 0.54365864535105 
H14   H     0.97682270895789 0.07360882277687 0.95634879289977 
H15   H     0.91706383432020 0.42637797833113 0.04355924674773 
H16   H     0.82992066818350 0.42643738257124 0.45610665079298 
H17   H     0.77327265107062 0.05605645227168 0.52370296576527 
H18   H     0.72569246772377 0.05622825063954 0.97622379655460 
H19   H     0.66127508358199 0.44402517386538 0.02372259027525 
H20   H     0.61386218093466 0.44398642158725 0.47611229033443 
H21   H     0.51470911072855 0.99073674302010 0.54896273866607 
H22   H     0.41641127211286 0.99078003618247 0.95091539513765 
H23   H     0.53364742929042 0.50963536669855 0.04899051154119 
H24   H     0.43562129480364 0.50961688001226 0.45093854352940 
H25   H     0.32192763818078 0.87974948396004 0.59798293457674 
H26   H     0.12591312214997 0.87974536313690 0.90183475283516 
H27   H     0.56315901962457 0.62076038070026 0.09811127593747 
H28   H     0.36680648187922 0.62066978351099 0.40175996201303 
H29   H     0.25286680232069 0.75684233949967 0.65529663852275 
H30   H     0.94265863668868 0.75674771561459 0.84455219667555 
H31   H     0.74000228133538 0.74362973824147 0.15545265519217 
H32   H     0.42906747821116 0.74361884576879 0.34434311594007 
H33   H     0.31861047404317 0.64563517924338 0.70696805081679 
H34   H     0.90585989968423 0.64546809272658 0.79323571942631 
H35   H     0.02801282935821 0.85473196842202 0.20696937556797 
H36   H     0.61447261637242 0.85481332779312 0.29299174646569 
H37   H     0.47470173725418 0.57213405793108 0.72503588614891 
H38   H     0.02632603243438 0.57199437516913 0.77550779184526 
H39   H     0.33062417278749 0.92802695301108 0.22485241456928 
H40   H     0.88153376245907 0.92819252059094 0.27523187925296 
H41   H     0.67683744111787 0.54692381802439 0.70216842845952 
H42   H     0.27447553083271 0.54698756193938 0.79852430551348 
H43   H     0.58276694295259 0.95295294548036 0.20188514712740 
H44   H     0.17955871172382 0.95311716767311 0.29824678167221 
H45   H     0.75382357330066 0.80839924173060 0.54101414852037 
H46   H     0.67264498315394 0.80891278437627 0.95911046951122 
H47   H     0.13675926104859 0.69139328780477 0.04091946159630 
H48   H     0.05480329561727 0.69133159996150 0.45902755933668 
H49   H     0.90721339387948 0.76795051021010 0.50262779592574 
H50   H     0.90328302404574 0.76884147248980 0.99747184120940 
H51   H     0.37064661570516 0.73152307023323 0.00246818188589 
H52   H     0.36539502938827 0.73134449918867 0.49737844514929 
H53   H     0.96903444155344 0.65509475144632 0.55453712943769 
H54   H     0.86184682638414 0.65593827210536 0.94578481457288 
H55   H     0.65806449170431 0.84421776480994 0.05432241042729 
H56   H     0.54931976883821 0.84411907717291 0.44558220889478 
H57   H     0.85425157306049 0.57748849443515 0.63998108823367 
H58   H     0.57628385921250 0.57789803320026 0.86063153773093 
H59   H     0.69879786065804 0.92200875420095 0.13975769843105 
H60   H     0.41958042729803 0.92211533280381 0.36032774617016 
H61   H     0.93284640342623 0.81859686345874 0.71154096227328 
H62   H     0.51026383624929 0.81876566684068 0.78851941314954 
H63   H     0.29566737031144 0.68123434018328 0.21145161218581 
H64   H     0.87269247956562 0.68146695437464 0.28841039589434 
