data_stdin
_audit_creation_method 'critic2'
_audit_creation_date 2023-8-11
_chemical_formula_sum 'C26 H16'
_cell_formula_units_Z 4
_cell_length_a         7.2939762720
_cell_length_b        14.9082000731
_cell_length_c        18.9878535493
_cell_angle_alpha        79.1517
_cell_angle_beta        67.3810
_cell_angle_gamma        60.6924
_cell_volume          1661.974914
_space_group_crystal_system triclinic
_space_group_IT_number 1
_space_group_name_H-M_alt 'P1'
_space_group_name_Hall 'P 1'
loop_
_symmetry_equiv_pos_site_id
_symmetry_equiv_pos_as_xyz
 1 'x,y,z'
loop_
_atom_site_label
_atom_site_type_symbol
_atom_site_fract_x
_atom_site_fract_y
_atom_site_fract_z
C1    C     0.77248244989237 0.52028997012271 0.67347169978860 
C2    C     0.16054200991583 0.47955075966047 0.82647191982942 
C3    C     0.88032436058288 0.97972277001684 0.17353433974120 
C4    C     0.18672497040335 0.02039527014002 0.32648523971996 
C5    C     0.68994558023142 0.45122875994178 0.67686744991317 
C6    C     0.94672763922705 0.54869057025869 0.82300289992927 
C7    C     0.95599009937836 0.04880882009524 0.17694118999439 
C8    C     0.40742259947501 0.95124742977018 0.32307852028184 
C9    C     0.49888771019253 0.48559133018833 0.65941870007951 
C10   C     0.78928786987108 0.51445079999938 0.84046187012952 
C11   C     0.18198565022152 0.01447907023910 0.15947590992794 
C12   C     0.52987653065280 0.98550731971996 0.34053384003612 
C13   C     0.45913546983837 0.66138837024862 0.64004080011518 
C14   C     0.06208081024639 0.33861190983323 0.85995833977907 
C15   C     0.26067740955371 0.83866467034039 0.14006981012053 
C16   C     0.21811154040207 0.16137297995473 0.35993075023799 
C17   C     0.38386094066913 0.58934880988928 0.63906514979039 
C18   C     0.84080018046636 0.41073792011620 0.86089098004582 
C19   C     0.33783479985421 0.91073138984916 0.13909423022185 
C20   C     0.43749319948360 0.08924571020626 0.36090023010406 
C21   C     0.20175984019125 0.62144655010437 0.61280795010605 
C22   C     0.67015429927202 0.37876113997249 0.88717346007168 
C23   C     0.57251093977216 0.87866647007245 0.11280920004380 
C24   C     0.55552330008916 0.12124037993137 0.38715971996933 
C25   C     0.11752189945412 0.71605218012775 0.58028306977133 
C26   C     0.70983582043435 0.28418628007698 0.91972988975263 
C27   C     0.72192565041916 0.78406513963940 0.08027117976374 
C28   C     0.45066132999501 0.21584240029593 0.41968043028441 
C29   C     0.34098562948296 0.76738343024719 0.61802867975020 
C30   C     0.11165470010758 0.23265397968924 0.88199847984730 
C31   C     0.42296277020949 0.73268012998905 0.11803461011213 
C32   C     0.12438899015311 0.26734774967798 0.38194893972146 
C33   C     0.19314138929797 0.78891483015297 0.57844441004583 
C34   C     0.92748835051097 0.21122312998413 0.92158868991977 
C35   C     0.65005682086225 0.71117509992965 0.07843357985234 
C36   C     0.22930027114521 0.28879542966791 0.42152075975781 
C37   C     0.12691392016778 0.88118841990888 0.53533884015620 
C38   C     0.95943796040649 0.11895304002484 0.96468830013126 
C39   C     0.80261727973568 0.61891003998476 0.03530878990837 
C40   C     0.11107832992183 0.38107302993016 0.46462019014189 
C41   C     0.21471374043819 0.94658358036324 0.52820114975795 
C42   C     0.16377772985644 0.05348419001077 0.97182830007240 
C43   C     0.72914039012974 0.55350338002486 0.02816460021996 
C44   C     0.89243015931625 0.44653781037194 0.47178315982769 
C45   C     0.38069598047055 0.84969445038170 0.62714066978960 
C46   C     0.33421398965838 0.15027483989028 0.87288111011151 
C47   C     0.36506891958178 0.65035264993467 0.12714034026649 
C48   C     0.92003021960680 0.34972373022235 0.37285661006975 
C49   C     0.34481560066486 0.93190460994802 0.57314194001492 
C50   C     0.35460556082212 0.06807689995042 0.92688241988714 
C51   C     0.50907992031673 0.56815278997256 0.07312416018257 
C52   C     0.79155048980225 0.43192446028431 0.42686614974520 
C53   C     0.43971316993987 0.99872260010822 0.56463337996870 
C54   C     0.56616391028645 0.00120410017014 0.93537597001609 
C55   C     0.43126495963583 0.50131365028407 0.06461914010314 
C56   C     0.56294753916259 0.49878956991811 0.43540699026526 
C57   C     0.56006138947140 0.98659966997186 0.60910608988860 
C58   C     0.75135973017384 0.01329208011090 0.89089715023102 
C59   C     0.22186659997147 0.51342888971598 0.10910038996256 
C60   C     0.46673326978246 0.48671867001558 0.39095407975787 
C61   C     0.45172539975659 0.85637779977028 0.68662559983470 
C62   C     0.53772806942296 0.14353047992260 0.81337879024916 
C63   C     0.17497622973321 0.64364802025456 0.18663435993495 
C64   C     0.83553925995977 0.35647458971305 0.31338262006175 
C65   C     0.56106390930851 0.91834930026907 0.67266269005247 
C66   C     0.74310750043473 0.08153826962709 0.82733708978730 
C67   C     0.09359735983539 0.58167968013456 0.17266389001702 
C68   C     0.60218935939615 0.41848892017483 0.32737693989798 
C69   C     0.66263072998265 0.91638825972301 0.72436718978311 
C70   C     0.94426851003471 0.08350314002331 0.77561870987547 
C71   C     0.88849449986704 0.58364561028189 0.22437256007942 
C72   C     0.50446714975536 0.41658380978983 0.27567983983878 
C73   C     0.63625400965042 0.86443469016074 0.79183902979291 
C74   C     0.94901427934434 0.13544317038281 0.70813999979119 
C75   C     0.77982815080877 0.63556249001444 0.29186461983515 
C76   C     0.63473186967323 0.36464837988316 0.20819180994764 
C77   C     0.49187855989045 0.81758694030789 0.81483037996396 
C78   C     0.75693472984341 0.18226804031209 0.68514836982549 
C79   C     0.87823788952738 0.68235890993854 0.31487044007415 
C80   C     0.87286789019175 0.31775180997792 0.18517687993622 
C81   C     0.39659298975390 0.81357689007589 0.76278395011222 
C82   C     0.54940973015550 0.18630298027152 0.73721807996730 
C83   C     0.07768314014375 0.68640912963715 0.26280599005551 
C84   C     0.97625002946651 0.31368788018437 0.23721463981234 
C85   C     0.23614848059888 0.77620752971066 0.79128459977062 
C86   C     0.37121202972694 0.22366077973797 0.70874202011949 
C87   C     0.18109645950884 0.72375941015269 0.29130658994746 
C88   C     0.21148743054652 0.27627479969382 0.20870137981497 
C89   C     0.18049045939901 0.74050435006128 0.86534508020352 
C90   C     0.39237238923252 0.25931596033370 0.63467389985027 
C91   C     0.08861011932756 0.75936010035713 0.36539503975073 
C92   C     0.33854184922199 0.24056559031172 0.13463666013255 
C93   C     0.28343439978445 0.74003369011721 0.91493522980202 
C94   C     0.59369156002423 0.25975022970805 0.58505164018292 
C95   C     0.88646548950274 0.75975238990470 0.41501634021195 
C96   C     0.23647136042737 0.24013497982380 0.08505609011187 
C97   C     0.43503094979298 0.77901405963722 0.88995338017987 
C98   C     0.77328931034699 0.22079548989357 0.61001606022724 
C99   C     0.78481403052137 0.72082952035373 0.39002220976091 
C100  C     0.00685422013134 0.27917208034252 0.11004805997102 
C101  C     0.65851949995583 0.62301104966119 0.65639363016144 
C102  C     0.21762600023263 0.37686815964465 0.84360933004005 
C103  C     0.02854561036166 0.87700901005380 0.15643940982834 
C104  C     0.09534323983577 0.12309727995576 0.34357797000003 
H1    H     0.92602799069840 0.49271371981933 0.68537315016325 
H2    H     0.28290141935378 0.50702622016428 0.81457345984456 
H3    H     0.70295387057212 0.00726912966627 0.18544192007558 
H4    H     0.08822187024994 0.99291051974518 0.31457580014785 
H5    H     0.77731487948886 0.37107001995571 0.69214987019217 
H6    H     0.90456162032078 0.62881476034044 0.80766257981746 
H7    H     0.83795495974223 0.12896023014130 0.19224089975638 
H8    H     0.48029612007447 0.87110295978260 0.30778564993737 
H9    H     0.43715107009231 0.43232613024173 0.65944450009640 
H10   H     0.62110128983171 0.56777984978013 0.84038889993792 
H11   H     0.24363336987789 0.06775737032039 0.15950601001266 
H12   H     0.69816120067614 0.93217155012538 0.34050540975736 
H13   H     0.14286549994417 0.56644719965125 0.61423181998153 
H14   H     0.50409586028582 0.43382202975373 0.88574928006926 
H15   H     0.62851627023436 0.93368685037355 0.11421901001462 
H16   H     0.72442496957436 0.06617645009728 0.38574335016425 
H17   H     0.99135203940194 0.73764455032107 0.55457654023071 
H18   H     0.57520867917837 0.26271867027099 0.94545503991322 
H19   H     0.89955271998981 0.76251054963641 0.05454575995319 
H20   H     0.53374871913112 0.23734967009353 0.44539154021671 
H21   H     0.01519841037964 0.89586970016342 0.50489900978492 
H22   H     0.81609278953102 0.10430876003184 0.99511829022938 
H23   H     0.97527854968482 0.60423705028396 0.00485897993646 
H24   H     0.19354283954677 0.39570687000758 0.49503506981862 
H25   H     0.18203533869877 0.01201089036598 0.48953066024881 
H26   H     0.18448361923555 0.98806020031388 0.01050014015045 
H27   H     0.83925378062063 0.48808794009013 0.98947523993940 
H28   H     0.79431513966752 0.51196874006294 0.51045395021822 
H29   H     0.41831085929502 0.05826755991729 0.52105300013404 
H30   H     0.57660360985700 0.94165838034456 0.97895508993700 
H31   H     0.53994584008633 0.44176513032413 0.02103498998172 
H32   H     0.46529060101315 0.55832492969055 0.47899864981884 
H33   H     0.64161879047636 0.03442532988556 0.60054677014210 
H34   H     0.91145900948487 0.96543744995486 0.89946258998021 
H35   H     0.15746178072936 0.46559656990118 0.10054047977515 
H36   H     0.28946571030525 0.53457658974115 0.39954604984882 
H37   H     0.75913059979470 0.95871317027567 0.70908020987958 
H38   H     0.09486284985700 0.04119605019858 0.79089962013528 
H39   H     0.82256266022041 0.54134918009441 0.20907368996699 
H40   H     0.32326884992135 0.45893624962523 0.29098367990493 
H41   H     0.71315570922244 0.86377837008306 0.83109814013327 
H42   H     0.10322200032697 0.13609393024156 0.66888265006050 
H43   H     0.62432266963270 0.63621072968766 0.33112363001254 
H44   H     0.55907118950145 0.36403941023005 0.16894103010508 
H45   H     0.15022843044467 0.77793240000967 0.75496237988060 
H46   H     0.21601049028309 0.22195731967284 0.74509538977472 
H47   H     0.33967720965981 0.72209454993745 0.25496402020770 
H48   H     0.29398476938047 0.27797258037325 0.24502383028392 
H49   H     0.05426255033075 0.71357529027851 0.88548149971913 
H50   H     0.25255064982455 0.28622670015728 0.61455652026246 
H51   H     0.17456910990596 0.78626364008765 0.38552787989044 
H52   H     0.51867081007316 0.21360163021424 0.11449120998484 
H53   H     0.24516115942862 0.70920790017464 0.97249055975772 
H54   H     0.60897465916305 0.29051670036577 0.52748144027397 
H55   H     0.80963344934610 0.79046638981455 0.47260507024251 
H56   H     0.33639978910816 0.20929954030541 0.02749834990774 
H57   H     0.51227687022674 0.78100230993269 0.92829068013222 
H58   H     0.93127878996944 0.21878623992218 0.57165329982234 
H59   H     0.63086134001967 0.71879874961716 0.42837593979726 
H60   H     0.92556934012663 0.28120242984106 0.07171804007359 
H61   H     0.72505292971951 0.67491253024568 0.65456077982878 
H62   H     0.38426042987422 0.32489737980647 0.84549223991328 
H63   H     0.96574261045655 0.82508519986261 0.15459934018392 
H64   H     0.92497216980853 0.17506268973401 0.34542280017585 
