data_stdin
_audit_creation_method 'critic2'
_audit_creation_date 2023-8-11
_chemical_formula_sum 'C26 H16'
_cell_formula_units_Z 4
_cell_length_a         7.2550720917
_cell_length_b        13.6279206426
_cell_length_c        21.8468752595
_cell_angle_alpha       110.9047
_cell_angle_beta       109.3681
_cell_angle_gamma        57.8861
_cell_volume          1681.375784
_space_group_crystal_system triclinic
_space_group_IT_number 2
_space_group_name_H-M_alt 'P-1'
_space_group_name_Hall '-P 1'
loop_
_symmetry_equiv_pos_site_id
_symmetry_equiv_pos_as_xyz
 1 'x,y,z'
 2 '-x,-y,-z'
loop_
_atom_site_label
_atom_site_type_symbol
_atom_site_fract_x
_atom_site_fract_y
_atom_site_fract_z
C1    C     0.32898151954002 0.09782287993323 0.55632017005789 
C2    C     0.91120167003029 0.40212911956154 0.94373920984766 
C3    C     0.11461039024669 0.12562073041720 0.51883112003566 
C4    C     0.82715928042386 0.37429755006982 0.98119304014288 
C5    C     0.95834058044101 0.13460957021026 0.54615350020200 
C6    C     0.63425436014206 0.36533869008877 0.95384565022190 
C7    C     0.23171756983221 0.08070887979949 0.64756762985214 
C8    C     0.59758784901287 0.41926447040086 0.85245885994438 
C9    C     0.01044525044017 0.11646778997849 0.61094727975135 
C10   C     0.52076514075757 0.38352394984378 0.88905805012136 
C11   C     0.84010979932041 0.14042185987930 0.64127353983943 
C12   C     0.33761804026639 0.35964448012855 0.85871948012719 
C13   C     0.88037656040086 0.14317483988451 0.70726772985111 
C14   C     0.25166564990069 0.35688002968979 0.79272184000576 
C15   C     0.28106753047387 0.06410441991746 0.71440429006283 
C16   C     0.48036651980572 0.43586407015629 0.78561345981672 
C17   C     0.09810724054136 0.11058900995940 0.74569123006671 
C18   C     0.32774536954246 0.38939299022673 0.75430933983473 
C19   C     0.12904965911510 0.13000993039924 0.81594860005100 
C20   C     0.25724750035990 0.36994257986341 0.68404844986856 
C21   C     0.33235862088797 0.11037021972960 0.85423793008734 
C22   C     0.34491760960764 0.38957451976274 0.64577189978585 
C23   C     0.50132542955870 0.01483266026408 0.75336482009471 
C24   C     0.52446955981485 0.48512252983608 0.74666387015586 
C25   C     0.52163312983682 0.05392397023748 0.82420911992147 
C26   C     0.48138857020750 0.44604029035253 0.67581743012997 
C27   C     0.73082031001256 0.03809542999110 0.86446258993267 
C28   C     0.57854986992361 0.46189945021900 0.63557313024674 
C29   C     0.91494141031505 0.98205747011779 0.83632447991665 
C30   C     0.70698758984934 0.51791373969111 0.66372368998899 
C31   C     0.70324752040204 0.92934873953418 0.72706533985832 
C32   C     0.60822647947523 0.57058751050555 0.77297557019308 
C33   C     0.90695534077786 0.92251278001160 0.76782830018438 
C34   C     0.71693371002887 0.57740861012725 0.73222645022453 
C35   C     0.10727962931964 0.85103269041191 0.74152859020881 
C36   C     0.82717712989781 0.64881097009399 0.75855364007371 
C37   C     0.11285320992760 0.77877599997962 0.67925831013017 
C38   C     0.81283080981599 0.72104450002526 0.82082860010128 
C39   C     0.92064004005815 0.76702278017403 0.64102671014275 
C40   C     0.67334232062302 0.73287142002313 0.85903158017877 
C41   C     0.71511925002326 0.84042514046760 0.66490643008657 
C42   C     0.56663457006254 0.65951443001576 0.83513401993421 
C43   C     0.53892595976832 0.81328644033356 0.62987630980084 
C44   C     0.40609744064751 0.68670415966119 0.87013702988158 
C45   C     0.56042247933409 0.72258324039122 0.57331236000056 
C46   C     0.35932920035045 0.77745080019158 0.92668069019673 
C47   C     0.75936854078392 0.65493614960662 0.54812589989480 
C48   C     0.47353024089653 0.84506949963089 0.95188007996710 
C49   C     0.93612928996889 0.67719322976707 0.58177984981027 
C50   C     0.62769397961627 0.82273191039727 0.91826349005691 
C51   C     0.38691712987974 0.07403173027602 0.61844293998753 
C52   C     0.79761216029673 0.42593837031711 0.88161431003694 
H1    H     0.45019755984229 0.09511223980554 0.53601907990876 
H2    H     0.06754415991615 0.40484146995830 0.96406381999278 
H3    H     0.07351132050291 0.14039028996718 0.46910863005591 
H4    H     0.91481573041330 0.35950282978348 0.03091416023842 
H5    H     0.79086413030848 0.15682906025887 0.51842273010616 
H6    H     0.56647831039542 0.34311403966037 0.98155610000330 
H7    H     0.67413898932790 0.16493414997272 0.61217233984066 
H8    H     0.27858472047674 0.33519758015410 0.88781556017936 
H9    H     0.74678385937176 0.17187557032936 0.73226485988724 
H10   H     0.12538949015504 0.32824128997764 0.76771336014171 
H11   H     0.98537217002204 0.16839476992822 0.83862569024411 
H12   H     0.14493886986459 0.33156172977533 0.66135827006158 
H13   H     0.35220743066668 0.13682015957494 0.90834621995153 
H14   H     0.30958970018342 0.36310310988840 0.59166349005809 
H15   H     0.73929988979044 0.07557774005296 0.91791248020033 
H16   H     0.55509638047114 0.42446243995637 0.58211905019541 
H17   H     0.07317707980378 0.97499328015730 0.86618545992004 
H18   H     0.79147604998234 0.52498810971604 0.63386751984994 
H19   H     0.25682379996233 0.85416424024544 0.77300668020674 
H20   H     0.92021941028152 0.64563728000020 0.72709460991589 
H21   H     0.26699154920570 0.72314922031693 0.65994981996238 
H22   H     0.89453483965417 0.77662169987869 0.84015810014458 
H23   H     0.38568791067555 0.86205252986579 0.64907746023891 
H24   H     0.31188917074492 0.63794528978086 0.85092514006854 
H25   H     0.42360271923114 0.70191619026023 0.54905815001273 
H26   H     0.22959055976368 0.79815645993874 0.95091183994781 
H27   H     0.77611642032788 0.58327590014398 0.50370818015441 
H28   H     0.43580918052150 0.91675982963553 0.99628298002194 
H29   H     0.09408418929015 0.62335040031059 0.56455872982146 
H30   H     0.71257596083374 0.87654412955966 0.93549513996773 
H31   H     0.55322411011280 0.05352189955404 0.64620963988807 
H32   H     0.86755100049426 0.44646495036928 0.85387102022800 
