data_stdin
_audit_creation_method 'critic2'
_audit_creation_date 2023-8-11
_chemical_formula_sum 'C26 H16'
_cell_formula_units_Z 4
_cell_length_a        11.2356480602
_cell_length_b        12.2888992252
_cell_length_c        17.9430564841
_cell_angle_alpha       108.5386
_cell_angle_beta        51.2324
_cell_angle_gamma       120.5336
_cell_volume          1663.798432
_space_group_crystal_system triclinic
_space_group_IT_number 2
_space_group_name_H-M_alt 'P-1'
_space_group_name_Hall '-P 1'
loop_
_symmetry_equiv_pos_site_id
_symmetry_equiv_pos_as_xyz
 1 'x,y,z'
 2 '-x,-y,-z'
loop_
_atom_site_label
_atom_site_type_symbol
_atom_site_fract_x
_atom_site_fract_y
_atom_site_fract_z
C1    C     0.75897772035870 0.12614831034984 0.74279548987071 
C2    C     0.24478592008548 0.62636066962047 0.75698743972723 
C3    C     0.83681713001389 0.04760794017382 0.67276666017295 
C4    C     0.18271446996188 0.54793851028003 0.82706257003362 
C5    C     0.77335673002301 0.96804687032782 0.62003833014488 
C6    C     0.01378708989064 0.46836672037024 0.87989440011361 
C7    C     0.54017568047230 0.03319550997772 0.71390565969363 
C8    C     0.96804925027897 0.53327049015305 0.78604916988143 
C9    C     0.62890171967945 0.96206486960717 0.63698418034766 
C10   C     0.90308988001549 0.46224000962646 0.86299406992164 
C11   C     0.57770931030587 0.89203702036124 0.57416053028772 
C12   C     0.72626362006187 0.39212517987247 0.92588059986053 
C13   C     0.45228290938127 0.89936284969425 0.58297155009908 
C14   C     0.61829755965642 0.39923071000961 0.91709348033137 
C15   C     0.39030179947027 0.02494952978879 0.73192311025224 
C16   C     0.85405356986290 0.52487256965499 0.76809524027684 
C17   C     0.36113967956278 0.96896150973011 0.65895969017181 
C18   C     0.67896672015575 0.46876365014998 0.84109848994838 
C19   C     0.24894501049269 0.98837998034466 0.65665662981842 
C20   C     0.56203434997592 0.48805443985248 0.84344744998608 
C21   C     0.18172014042063 0.07133571015678 0.71921312980215 
C22   C     0.61977647010620 0.57101771964394 0.78092487973848 
C23   C     0.27963542966635 0.08128813006077 0.81331314999276 
C24   C     0.90601273031013 0.58119955972761 0.68673505970104 
C25   C     0.19685976987553 0.12050517980042 0.79749728030789 
C26   C     0.79148254061374 0.62031577994530 0.70261355968996 
C27   C     0.12514508938339 0.20666350973940 0.86091222026971 
C28   C     0.84645874001829 0.70649833005216 0.63924155025138 
C29   C     0.12293833949476 0.24607832963994 0.94181996025666 
C30   C     0.00607601996063 0.74604313953490 0.55832238000811 
C31   C     0.24374237017818 0.10095890988431 0.90836750982193 
C32   C     0.06022668019762 0.60099223980698 0.59166528005459 
C33   C     0.17369317906735 0.18948876970189 0.96926095033976 
C34   C     0.11183763966855 0.68955435959131 0.53082050989557 
C35   C     0.14820781982611 0.22092498953093 0.06049646980988 
C36   C     0.26882914998824 0.72111337023123 0.43956947984299 
C37   C     0.18809169964545 0.16682737000508 0.09298164013905 
C38   C     0.37380121066253 0.66712433027046 0.40703516991466 
C39   C     0.24277417983144 0.06875463974394 0.03925368985995 
C40   C     0.32116930925825 0.56903999960112 0.46072191027110 
C41   C     0.26120839001675 0.02978821041110 0.94953405025988 
C42   C     0.16015387007749 0.52993448033538 0.55044721023776 
C43   C     0.28641583993885 0.91792549014910 0.90844598016998 
C44   C     0.10335141938095 0.41807189969349 0.59149481029779 
C45   C     0.31048667980374 0.85637014006008 0.94733739032284 
C46   C     0.20534858980980 0.35665199991606 0.55256945030949 
C47   C     0.30819534000076 0.90250423041359 0.03050469009446 
C48   C     0.36938880049124 0.40291283981834 0.46938957965529 
C49   C     0.27083442001015 0.00550161983126 0.07670456013952 
C50   C     0.42427990026185 0.50591984024385 0.42322693023725 
C51   C     0.61381305994365 0.11802754009275 0.76323080029207 
C52   C     0.14034891037344 0.61813886020016 0.73662871980771 
H1    H     0.81337429023358 0.19461288013706 0.78097934974634 
H2    H     0.37555779980443 0.69483348967641 0.71870794015111 
H3    H     0.94818228989170 0.05109885963708 0.65863297011108 
H4    H     0.26590756066659 0.55148716981021 0.84114095968209 
H5    H     0.83606544988525 0.91062255963584 0.56264013997160 
H6    H     0.96178379990878 0.41103128981875 0.93733242032119 
H7    H     0.64683885954849 0.83919211969318 0.51558613998471 
H8    H     0.67838420009573 0.33938051010106 0.98447948996128 
H9    H     0.42149942992742 0.85407252959547 0.53075979028095 
H10   H     0.48309122990454 0.35382174992632 0.96933498007639 
H11   H     0.22827687992682 0.94326161993290 0.60052886994005 
H12   H     0.42911967981175 0.44285059953193 0.89959513000035 
H13   H     0.10925859003761 0.09800908007165 0.71313182979990 
H14   H     0.53504863029426 0.59762234005474 0.78706739016830 
H15   H     0.07143919997064 0.23958568975262 0.84366063018022 
H16   H     0.75813613933365 0.73932740005629 0.65654435031960 
H17   H     0.07181787008513 0.31430273004309 0.99007977026617 
H18   H     0.05137270038439 0.81428768041755 0.51009436999528 
H19   H     0.09613280018648 0.28997157997765 0.10370838995879 
H20   H     0.30304445986420 0.79015492974453 0.39639148031769 
H21   H     0.17165514012203 0.19366707017697 0.16183260998785 
H22   H     0.49506848978095 0.69406434954351 0.33817335001524 
H23   H     0.28396273052423 0.87785561037791 0.84588159000903 
H24   H     0.97577746991473 0.37788886957364 0.65407430973379 
H25   H     0.33037972987281 0.77094384029247 0.91295978020229 
H26   H     0.15661075053875 0.27122483032079 0.58692760977352 
H27   H     0.33366091954886 0.85707999997096 0.05900297019514 
H28   H     0.45195070962536 0.35758379000852 0.44086017023003 
H29   H     0.26171115966338 0.03957474028560 0.14338160023227 
H30   H     0.54850626031666 0.54011056033866 0.35654339017127 
H31   H     0.55761529052230 0.18062801010784 0.81685547982646 
H32   H     0.19131926953443 0.68066743956673 0.68296889006182 
