data_stdin
_audit_creation_method 'critic2'
_audit_creation_date 2023-8-11
_chemical_formula_sum 'C26 H16'
_cell_formula_units_Z 4
_cell_length_a         7.5320997046
_cell_length_b        13.8135122125
_cell_length_c        21.3832673294
_cell_angle_alpha       104.0780
_cell_angle_beta       116.4820
_cell_angle_gamma        57.0020
_cell_volume          1670.147673
_space_group_crystal_system triclinic
_space_group_IT_number 2
_space_group_name_H-M_alt 'P-1'
_space_group_name_Hall '-P 1'
loop_
_symmetry_equiv_pos_site_id
_symmetry_equiv_pos_as_xyz
 1 'x,y,z'
 2 '-x,-y,-z'
loop_
_atom_site_label
_atom_site_type_symbol
_atom_site_fract_x
_atom_site_fract_y
_atom_site_fract_z
C1    C     0.14649687997908 0.26180618029380 0.82695853996313 
C2    C     0.67018461928532 0.23827331013171 0.32700100001219 
C3    C     0.01553775049504 0.34412711961393 0.77342756979170 
C4    C     0.70379153072402 0.15591533963328 0.27344540013518 
C5    C     0.82870283975960 0.44783842019214 0.77824081010548 
C6    C     0.72443678023959 0.05212174987419 0.27825053002468 
C7    C     0.88881870063626 0.38579554980348 0.88821854022404 
C8    C     0.66063672035196 0.11415836032479 0.38826460005335 
C9    C     0.76484522041161 0.47165710979649 0.83561977995120 
C10   C     0.70833564967138 0.02826069014927 0.33564428021647 
C11   C     0.58851804930029 0.58394904033482 0.84383536019909 
C12   C     0.75665701021735 0.91590353018139 0.34384883997365 
C13   C     0.55157886921327 0.61289201040134 0.90429172992276 
C14   C     0.77761289986329 0.88694996996827 0.40430117011409 
C15   C     0.82382993998026 0.41208823986731 0.94744147986751 
C16   C     0.64825980036221 0.08782986966947 0.44748385012418 
C17   C     0.67387942919581 0.52998235042327 0.95823178975500 
C18   C     0.73404721028990 0.96990659980256 0.45824870995373 
C19   C     0.64990678998581 0.56723824004505 0.02345905974530 
C20   C     0.78451281987805 0.93266585028278 0.52346374983824 
C21   C     0.78322174057771 0.49174851006522 0.07800474019907 
C22   C     0.76681637975865 0.00821011036107 0.57802458010078 
C23   C     0.91753093056684 0.32874037973307 0.99944621989561 
C24   C     0.57525873957737 0.17118912038400 0.49950109011452 
C25   C     0.92165557006689 0.37208641027684 0.06773280976870 
C26   C     0.66595815979984 0.12789049979507 0.56777603991369 
C27   C     0.06547681991499 0.29562752985781 0.12581846013321 
C28   C     0.65671638896881 0.20442154029351 0.62587216991514 
C29   C     0.19763023973168 0.17992225989611 0.11690707995180 
C30   C     0.55739338002864 0.32015152003845 0.61698244016341 
C31   C     0.00846160993982 0.20539624990716 0.98886033024174 
C32   C     0.41954607007145 0.29449733014033 0.48893288008902 
C33   C     0.16628940050130 0.13211063001301 0.04846601007294 
C34   C     0.43060164972651 0.36787859994277 0.54854803977971 
C35   C     0.28774490036303 0.00978902991512 0.04006259002752 
C36   C     0.30740506029421 0.49019945005998 0.54016201000845 
C37   C     0.24483086998718 0.95976080010775 0.97574236976634 
C38   C     0.16462804040590 0.54012521019565 0.47584554998515 
C39   C     0.06099022014351 0.02840911957375 0.91584012021115 
C40   C     0.11828375893892 0.47134648033332 0.41592868989835 
C41   C     0.93543307040260 0.15142430960819 0.92239019997567 
C42   C     0.23876074978662 0.34832952970361 0.42246138986762 
C43   C     0.73515659082804 0.21391910975914 0.86399281004020 
C44   C     0.16366334054288 0.28567424961611 0.36405676993795 
C45   C     0.66988719066410 0.15985573011150 0.80150419018046 
C46   C     0.99043320894691 0.33959474023381 0.30156964976883 
C47   C     0.80143191051077 0.03962825997624 0.79414745999951 
C48   C     0.88151429978989 0.45983291005488 0.29422702986548 
C49   C     0.99259853917287 0.97547964042848 0.85097028994504 
C50   C     0.94420312955331 0.52413379969159 0.35105930974686 
C51   C     0.08408708060404 0.28227125013387 0.88266968014859 
C52   C     0.64881185949308 0.21776723978034 0.38272601976289 
H1    H     0.30179264081241 0.18274240971695 0.82554433996435 
H2    H     0.66732138975811 0.31740320990686 0.32558873977629 
H3    H     0.06330577993723 0.32837117987732 0.72932916979798 
H4    H     0.71999460027555 0.17169710014971 0.22934201020016 
H5    H     0.73316994945223 0.51482780012182 0.73909668986499 
H6    H     0.76284117971002 0.98510147987168 0.23909208002825 
H7    H     0.49652384954171 0.64744445015151 0.80302407008428 
H8    H     0.79168519005325 0.85237995957038 0.30302982987880 
H9    H     0.42831970030478 0.70062133038639 0.91311005018417 
H10   H     0.82985945976690 0.79918085009572 0.41311116018053 
H11   H     0.53353774029439 0.65783076974077 0.03015549976333 
H12   H     0.84932497042968 0.84204582985622 0.53014077977557 
H13   H     0.78365242054694 0.52137900977764 0.13008270988363 
H14   H     0.82646580056094 0.97860810991843 0.63009669017314 
H15   H     0.07429382038329 0.33180158966985 0.17774281983708 
H16   H     0.73779245983847 0.16828882037546 0.67778770980692 
H17   H     0.31863319960429 0.12220113037311 0.16167356980193 
H18   H     0.56280384909180 0.37793959035255 0.66175980980338 
H19   H     0.41447445011040 0.95712607014064 0.08680856978866 
H20   H     0.32863271980781 0.54294599982833 0.58691800973972 
H21   H     0.34116886920391 0.86656878039931 0.96980163989158 
H22   H     0.07456609023974 0.63332177040073 0.46991982005184 
H23   H     0.62844306985638 0.30640597991547 0.86865256023126 
H24   H     0.24193609074778 0.19317521966438 0.36871260013814 
H25   H     0.51460497022781 0.21073250990061 0.75773415017868 
H26   H     0.93704154071648 0.28858963957106 0.25779704978873 
H27   H     0.74798643954847 0.99785810026394 0.74478424974162 
H28   H     0.74466025965862 0.50149129997576 0.24486533982067 
H29   H     0.08956252936142 0.88171462031335 0.84762911011134 
H30   H     0.85362682966742 0.61790200960839 0.34772413989827 
H31   H     0.19151384928785 0.21864268975688 0.92415714976812 
H32   H     0.62901113022919 0.28143943980714 0.42422704019518 
