data_stdin
_audit_creation_method 'critic2'
_audit_creation_date 2023-8-11
_chemical_formula_sum 'C26 H16'
_cell_formula_units_Z 4
_cell_length_a        10.4294275083
_cell_length_b        10.7912492556
_cell_length_c        18.2764981347
_cell_angle_alpha        90.5497
_cell_angle_beta        55.2012
_cell_angle_gamma        90.9596
_cell_volume          1688.856127
_space_group_crystal_system triclinic
_space_group_IT_number 1
_space_group_name_H-M_alt 'P 1'
_space_group_name_Hall 'P 1'
loop_
_symmetry_equiv_pos_site_id
_symmetry_equiv_pos_as_xyz
 1 'x,y,z'
loop_
_atom_site_label
_atom_site_type_symbol
_atom_site_fract_x
_atom_site_fract_y
_atom_site_fract_z
C1    C     0.07786393007221 0.65396346026564 0.29698625002491 
C2    C     0.92213621028235 0.34603665038814 0.70301376005242 
C3    C     0.67180703955371 0.15398916030402 0.20304752002478 
C4    C     0.32819283055893 0.84601062989610 0.79695258978824 
C5    C     0.09071873984893 0.77359135958632 0.32393072981005 
C6    C     0.90928132007875 0.22640873973097 0.67606932985340 
C7    C     0.73855704044770 0.27361350972954 0.17610715999271 
C8    C     0.26144274972445 0.72638630991089 0.82389302983096 
C9    C     0.23594814963031 0.83004883964677 0.28142806021849 
C10   C     0.76405187935315 0.16995133002207 0.71857202030846 
C11   C     0.79879284993494 0.33006463983573 0.21860291003893 
C12   C     0.20120685988241 0.66993514993296 0.78139733000151 
C13   C     0.36088596951417 0.64330079021068 0.19080079014288 
C14   C     0.63911416963432 0.35669945018768 0.80919922014740 
C15   C     0.74247285047393 0.14332165040884 0.30921903000450 
C16   C     0.25752692990566 0.85667804965562 0.69078112011774 
C17   C     0.37149439990480 0.76929717981088 0.21201126999202 
C18   C     0.62850567934789 0.23070305023094 0.78798880025528 
C19   C     0.79550534021355 0.26931275985976 0.28801313995306 
C20   C     0.20449434055390 0.73068696959334 0.71198708970419 
C21   C     0.51675480044563 0.83494302017081 0.15987154983542 
C22   C     0.48324526008179 0.16505723020689 0.84012857012848 
C23   C     0.83648734945621 0.33495627032045 0.34015189020333 
C24   C     0.16351216944054 0.66504344016551 0.65984842015798 
C25   C     0.64179399044947 0.78122723983174 0.08599589999718 
C26   C     0.35820613019479 0.21877305982353 0.91400421023757 
C27   C     0.81377798932577 0.28123709973104 0.41401976029250 
C28   C     0.18622152004655 0.71876253010245 0.58598053022909 
C29   C     0.50236841009582 0.57958151028184 0.12335236022321 
C30   C     0.49763178027763 0.42041878956524 0.87664763977702 
C31   C     0.74906558012814 0.07959375014344 0.37665798986490 
C32   C     0.25093420023647 0.92040588041483 0.62334213968561 
C33   C     0.63681519991365 0.65420879021024 0.06484265981926 
C34   C     0.36318495953974 0.34579155033035 0.93515738014175 
C35   C     0.76649845978952 0.15421671957480 0.43516564031162 
C36   C     0.23350122948905 0.84578285976700 0.56483455008515 
C37   C     0.76634395950804 0.60308293974967 0.98461373021642 
C38   C     0.23365620966032 0.39691744993754 0.01538628002423 
C39   C     0.73561138995391 0.10308528987674 0.51537601993851 
C40   C     0.26438841017508 0.89691419986446 0.48462410986786 
C41   C     0.75944514064472 0.48360849999341 0.96114298967955 
C42   C     0.24055503972499 0.51639191011607 0.03885697031831 
C43   C     0.68177245988298 0.98361114992012 0.53884239028634 
C44   C     0.31822745011724 0.01638829006971 0.46115766975899 
C45   C     0.51229474951999 0.44711601022361 0.10831300004390 
C46   C     0.48770548018322 0.55288429992441 0.89168695999590 
C47   C     0.72892501986082 0.94712951974428 0.39168397000544 
C48   C     0.27107484959147 0.05287009993230 0.60831609003943 
C49   C     0.63220377031901 0.40381286965239 0.02134058967531 
C50   C     0.36779645027481 0.59618748959205 0.97865935006239 
C51   C     0.67489999012444 0.90382488001702 0.47865053998947 
C52   C     0.32509991045259 0.09617464984703 0.52134948991823 
C53   C     0.62545292989333 0.28068969022906 0.99499320000634 
C54   C     0.37454729025262 0.71931069033143 0.00500671996496 
C55   C     0.61546137030843 0.78070090965681 0.50499381996136 
C56   C     0.38453851991042 0.21929862018388 0.49500615987402 
C57   C     0.50542160996478 0.20238391024599 0.05283042998930 
C58   C     0.49457863990508 0.79761643981002 0.94716947975387 
C59   C     0.61111169958113 0.70239106978888 0.44715781019688 
C60   C     0.38888816966025 0.29760853043344 0.55284214023910 
C61   C     0.41298273023287 0.35414564029779 0.17436197020853 
C62   C     0.58701753944129 0.64585464956787 0.82563797028114 
C63   C     0.76171574990348 0.85415678974263 0.32563217975658 
C64   C     0.23828416030715 0.14584289028502 0.67436782983025 
C65   C     0.40008109984591 0.23570049971749 0.14401745989682 
C66   C     0.59991916988816 0.76429980034438 0.85598246014428 
C67   C     0.68814124947095 0.73570721983241 0.35597382020111 
C68   C     0.31185866991978 0.26429245002874 0.64402613977447 
C69   C     0.28586524991225 0.14786499991206 0.20589112968232 
C70   C     0.71413502034172 0.85213528995676 0.79410878967794 
C71   C     0.69770114995334 0.64785935984412 0.29409766006587 
C72   C     0.30229883948602 0.35214036024902 0.70590227028514 
C73   C     0.19379749994736 0.17218154981669 0.29519692008800 
C74   C     0.80620275002951 0.82781871960983 0.70480300009085 
C75   C     0.78424754059029 0.67217130965333 0.20479187981246 
C76   C     0.21575252969018 0.32782844957670 0.79520804984095 
C77   C     0.22033827968882 0.28131472011097 0.32972045024343 
C78   C     0.77966196051389 0.71868556040955 0.67027948984808 
C79   C     0.87980702035676 0.78131644043184 0.17027177009348 
C80   C     0.12019299958598 0.21868333997766 0.82972821023455 
C81   C     0.33618726987836 0.36982649969698 0.26954182003151 
C82   C     0.66381299927512 0.63017375958315 0.73045813031738 
C83   C     0.87527788032751 0.86983722012503 0.23045242011370 
C84   C     0.12472205035571 0.13016253039013 0.76954759995261 
C85   C     0.37652138975277 0.46564957034557 0.30666349029296 
C86   C     0.62347888024732 0.53435067966909 0.69333646003359 
C87   C     0.98983875000246 0.96567296034855 0.19333189996701 
C88   C     0.01016113027095 0.03432682988134 0.80666817014327 
C89   C     0.29613827984639 0.48148909974860 0.39769257009451 
C90   C     0.70386191970716 0.51851118993197 0.60230738029447 
C91   C     0.09151178959409 0.98151832963135 0.10230387016389 
C92   C     0.90848810017881 0.01848153013048 0.89769620986720 
C93   C     0.17134103005444 0.40126449956846 0.45664291021639 
C94   C     0.82865910969895 0.59873582980602 0.54335704013518 
C95   C     0.08463279064657 0.90128244966154 0.04335144971725 
C96   C     0.91536718987359 0.09871742980412 0.95664858988564 
C97   C     0.13738528992471 0.30090154025673 0.42280026000319 
C98   C     0.86261487015292 0.69909877990426 0.57719968024152 
C99   C     0.98301120984171 0.80090858041311 0.07719209979349 
C100  C     0.01698884948274 0.19909126033921 0.92280789016071 
C101  C     0.20955777037810 0.58970902043339 0.23353480995273 
C102  C     0.79044241021559 0.41029117003144 0.76646516026366 
C103  C     0.67660672029231 0.08973303003306 0.26648898017810 
C104  C     0.32339315926644 0.91026669995334 0.73351111030912 
H1    H     0.96247024933648 0.61278149030585 0.32620113031898 
H2    H     0.03752993033430 0.38721855001829 0.67379886013658 
H3    H     0.61483214957260 0.11281240010105 0.17383855033116 
H4    H     0.38516779998764 0.88718740977314 0.82616151981975 
H5    H     0.98648057947061 0.82192368020723 0.37574587024920 
H6    H     0.01351944007254 0.17807635968904 0.62425421016463 
H7    H     0.73794829996801 0.32195395024569 0.12430121010148 
H8    H     0.26205149075046 0.67804592036775 0.87569898969815 
H9    H     0.24850550014391 0.92440243001678 0.29838797989313 
H10   H     0.75149444939195 0.07559771997799 0.70161214029593 
H11   H     0.84529010035617 0.42441091014614 0.20164199998535 
H12   H     0.15470957015705 0.57558888970909 0.79835829985070 
H13   H     0.52325068952022 0.93031745994762 0.17763219027517 
H14   H     0.47674932966901 0.06968275973411 0.82236798019830 
H15   H     0.87850999024022 0.43032838037979 0.32239835973454 
H16   H     0.12148940067486 0.56967136961397 0.67760203968538 
H17   H     0.75012351033645 0.83333375964907 0.04299852004803 
H18   H     0.24987661009302 0.16666656965845 0.95700163974415 
H19   H     0.83611462045627 0.33333668999446 0.45701746001077 
H20   H     0.16388471962908 0.66666291992572 0.54298290996274 
H21   H     0.86710705936139 0.66258767014561 0.94023929021577 
H22   H     0.13289310015407 0.33741273990363 0.05976073995083 
H23   H     0.74766745952418 0.16257997978257 0.55973829001793 
H24   H     0.25233231957804 0.83741945985543 0.44026187027355 
H25   H     0.85258136993927 0.44580083001169 0.89711952977919 
H26   H     0.14741878983950 0.55419963009155 0.10288040012382 
H27   H     0.64689202020376 0.94579427977418 0.60285517020335 
H28   H     0.35310800070822 0.05420506968686 0.39714484971342 
H29   H     0.71515639988360 0.25165203007653 0.92737848973336 
H30   H     0.28484380011858 0.74834836989474 0.07262140999324 
H31   H     0.56994293069362 0.75166572040182 0.57260416978091 
H32   H     0.43005695983765 0.24833375012720 0.42739580005751 
H33   H     0.49426658049045 0.11070622970452 0.03132417990165 
H34   H     0.50573367955369 0.88929413984194 0.96867570997263 
H35   H     0.55695967054844 0.61070877013790 0.46866073969937 
H36   H     0.44304018983533 0.38929083006429 0.53133916989197 
H37   H     0.27394019957363 0.06034178009807 0.17991469995616 
H38   H     0.72606006040843 0.93965851993973 0.82008519971254 
H39   H     0.63384573016721 0.56032783957066 0.32007015985817 
H40   H     0.36615427963136 0.43967187038465 0.67992973001849 
H41   H     0.10267136032148 0.10703619971602 0.34176702015114 
H42   H     0.89732888023078 0.89296407988095 0.65823289023007 
H43   H     0.78628730034896 0.60700814037599 0.15822135983940 
H44   H     0.21371286004975 0.39299164040971 0.84177853005471 
H45   H     0.47308002931923 0.52803418985369 0.26267556023899 
H46   H     0.52692025978400 0.47196605001597 0.73732439979444 
H47   H     0.99840704971470 0.02805975032639 0.23732421984560 
H48   H     0.00159277058874 0.97194002028141 0.76267587984228 
H49   H     0.33086188034582 0.55631396024506 0.42360821012612 
H50   H     0.66913832006715 0.44368633036377 0.57639175015810 
H51   H     0.17804846017639 0.05635677972384 0.07639335027832 
H52   H     0.82195138039566 0.94364311975742 0.92360675998168 
H53   H     0.10514704012209 0.41577043991250 0.52825481978724 
H54   H     0.89485301945771 0.58422994022436 0.47174512017327 
H55   H     0.16166127963621 0.91579122027618 0.97173972007191 
H56   H     0.83833872993316 0.08420871023814 0.02826031999791 
H57   H     0.04790071960001 0.23346037018593 0.46760595001535 
H58   H     0.95209939979274 0.76653998045077 0.53239399990016 
H59   H     0.98315861014332 0.73346411992825 0.03238189006723 
H60   H     0.01684151011895 0.26653574044871 0.96761807030031 
H61   H     0.19669861994981 0.49692763006561 0.21475013997189 
H62   H     0.80330161957253 0.50307258002015 0.78524978021281 
H63   H     0.62617554998285 0.99695424969674 0.28527550974196 
H64   H     0.37382440022506 0.00304543970297 0.71472451004619 
