data_stdin
_audit_creation_method 'critic2'
_audit_creation_date 2023-8-11
_chemical_formula_sum 'C26 H16'
_cell_formula_units_Z 4
_cell_length_a         6.8689655503
_cell_length_b        12.9212793556
_cell_length_c        25.4299858072
_cell_angle_alpha       117.2526
_cell_angle_beta       105.5894
_cell_angle_gamma        57.9462
_cell_volume          1699.633262
_space_group_crystal_system triclinic
_space_group_IT_number 2
_space_group_name_H-M_alt 'P-1'
_space_group_name_Hall '-P 1'
loop_
_symmetry_equiv_pos_site_id
_symmetry_equiv_pos_as_xyz
 1 'x,y,z'
 2 '-x,-y,-z'
loop_
_atom_site_label
_atom_site_type_symbol
_atom_site_fract_x
_atom_site_fract_y
_atom_site_fract_z
C1    C     0.32465879936731 0.91095748019267 0.90742396985747 
C2    C     0.83265617032042 0.58893046034365 0.59259808001310 
C3    C     0.55838444054043 0.85151273018711 0.92456886017947 
C4    C     0.91331422004413 0.64850686978432 0.57546521003521 
C5    C     0.68495816991900 0.91518775962183 0.93734564998071 
C6    C     0.14154543053074 0.58493191993015 0.56265737002533 
C7    C     0.34921861948056 0.09717983994055 0.91262743986541 
C8    C     0.21883103053224 0.40279170970142 0.58733569988421 
C9    C     0.58352253046502 0.03928662996706 0.93305680981677 
C10   C     0.29661390074189 0.46080817004195 0.56690550019216 
C11   C     0.70947134022411 0.11021845999428 0.95189087979729 
C12   C     0.52665156987213 0.38999748044969 0.54804509019692 
C13   C     0.60259545970755 0.23714803039203 0.95529905005084 
C14   C     0.66662816988907 0.26305166940314 0.54459929981055 
C15   C     0.24730895062928 0.22401640967211 0.90780332010138 
C16   C     0.38002636891604 0.27595897054476 0.59214181014658 
C17   C     0.36794568960033 0.29859884007368 0.93604639008030 
C18   C     0.59328726073274 0.20149055992375 0.56386683017023 
C19   C     0.25225960975037 0.43604522977625 0.94766997020005 
C20   C     0.72913488084205 0.06404800001503 0.55223654016346 
C21   C     0.02124368008437 0.49916044000486 0.93592645980047 
C22   C     0.64784132004989 0.00082196991094 0.56401121983041 
C23   C     0.02305395953621 0.28411272022277 0.88069632014778 
C24   C     0.33004047946636 0.21575571977145 0.61926329991934 
C25   C     0.90090094058840 0.42559193955903 0.90281376997800 
C26   C     0.44661229003186 0.07427396031400 0.59715799001097 
C27   C     0.65952304033060 0.49202187952409 0.89159250979758 
C28   C     0.36055374987167 0.00772895974690 0.60841798007706 
C29   C     0.54398856049086 0.42193629987303 0.85784224013681 
C30   C     0.17218715031007 0.07772335987679 0.64214257005663 
C31   C     0.91160726937307 0.21373361056677 0.83357193019603 
C32   C     0.17184556034740 0.28605751989014 0.66637937016017 
C33   C     0.66791285012815 0.28248963036080 0.82670553998665 
C34   C     0.07927344922432 0.21720256030628 0.67323010986472 
C35   C     0.54611911032248 0.21321596942675 0.78673363984948 
C36   C     0.89842793904258 0.28644783027861 0.71311964000558 
C37   C     0.66052591011651 0.08233032998103 0.75141559981435 
C38   C     0.82148350969314 0.41737129999344 0.74840061010806 
C39   C     0.90548050909985 0.01408983027204 0.75057521006484 
C40   C     0.93183715021222 0.48568076028105 0.74930932000871 
C41   C     0.03317677999313 0.08071042047267 0.78981382009096 
C42   C     0.11463997992664 0.41911515027317 0.71012919018461 
C43   C     0.27223127912326 0.01483855049626 0.78129410018838 
C44   C     0.23901847005175 0.48507245956679 0.71869177990652 
C45   C     0.38258499072614 0.88701913015628 0.74005394017115 
C46   C     0.17603645061386 0.61290023990188 0.75994451009240 
C47   C     0.25823265997346 0.81833081007856 0.70487974988086 
C48   C     0.98441188027975 0.68151801034627 0.79507089003936 
C49   C     0.02274667919842 0.88227505997474 0.70959154988434 
C50   C     0.86725338054955 0.61751100976094 0.79029707992372 
C51   C     0.22323871029376 0.03060348939120 0.90157904981746 
C52   C     0.98194836979177 0.46926131008319 0.59840793983099 
H1    H     0.22251566956509 0.86277317000165 0.89907051001058 
H2    H     0.65097926032735 0.63704796965646 0.60098403987139 
H3    H     0.63688676970088 0.75760399030233 0.92922411012523 
H4    H     0.79493995971316 0.74249030051508 0.57088831015942 
H5    H     0.86396530019198 0.87227627977676 0.95265640983439 
H6    H     0.20424836094770 0.62798556991646 0.54739202022000 
H7    H     0.88944685000235 0.06324332975122 0.96572067996366 
H8    H     0.58511230969649 0.43709585962032 0.53423895988104 
H9    H     0.69501027959036 0.29414016033289 0.97259919007123 
H10   H     0.83833550964278 0.20614538977933 0.52726259998825 
H11   H     0.34775994089257 0.49107893951058 0.96974593984765 
H12   H     0.89050450912523 0.00910949042168 0.53013445021845 
H13   H     0.92691557909669 0.60661283039995 0.95125332018891 
H14   H     0.73771113988672 0.89336742023745 0.54867742988854 
H15   H     0.56734729992915 0.59973186014846 0.91169604991303 
H16   H     0.44371198929798 0.90000829997361 0.58835407988164 
H17   H     0.35799305970325 0.47191469021476 0.85118289001848 
H18   H     0.09942667980660 0.02766655962543 0.64881486998199 
H19   H     0.35909531974934 0.26769013953020 0.78492605984571 
H20   H     0.82376843030628 0.23192400987035 0.71487753981493 
H21   H     0.56613084963345 0.03023237057217 0.72132121013659 
H22   H     0.68272559936725 0.46945427014396 0.77842466021299 
H23   H     0.37166797936510 0.06610657025375 0.80714954981422 
H24   H     0.38942421094500 0.43387440951353 0.69286407988042 
H25   H     0.56701017989100 0.83906808024729 0.73503441992000 
H26   H     0.27462558092094 0.66093216942990 0.76501245980421 
H27   H     0.34566657046272 0.71632894992982 0.67358642021365 
H28   H     0.93032227047149 0.78352212989459 0.82637441012337 
H29   H     0.92346035053615 0.83188117998418 0.68125586983183 
H30   H     0.72361254973681 0.66786823989545 0.81859051008893 
H31   H     0.04191250043800 0.07534170016388 0.88911903993470 
H32   H     0.91490686964731 0.42444012040605 0.61086295994822 
