data_stdin
_audit_creation_method 'critic2'
_audit_creation_date 2023-8-11
_chemical_formula_sum 'C26 H16'
_cell_formula_units_Z 4
_cell_length_a         7.2039111324
_cell_length_b        13.6838573060
_cell_length_c        18.6231954003
_cell_angle_alpha        92.8295
_cell_angle_beta       112.7366
_cell_angle_gamma        82.6438
_cell_volume          1679.229254
_space_group_crystal_system triclinic
_space_group_IT_number 2
_space_group_name_H-M_alt 'P-1'
_space_group_name_Hall '-P 1'
loop_
_symmetry_equiv_pos_site_id
_symmetry_equiv_pos_as_xyz
 1 'x,y,z'
 2 '-x,-y,-z'
loop_
_atom_site_label
_atom_site_type_symbol
_atom_site_fract_x
_atom_site_fract_y
_atom_site_fract_z
C1    C     0.09492750986379 0.45906372976134 0.10648432000439 
C2    C     0.88203532051450 0.45910579998221 0.39351648990660 
C3    C     0.08813349953949 0.48091844030926 0.18022949015478 
C4    C     0.72772867040653 0.48098255028333 0.31979568008206 
C5    C     0.11636799026920 0.40531324967187 0.23116225975788 
C6    C     0.65405326913511 0.40539528979518 0.26889007975604 
C7    C     0.13445344981594 0.28277046967393 0.13209769983271 
C8    C     0.87026411946270 0.28282386005761 0.36792878975735 
C9    C     0.14810025022512 0.30581261989590 0.20964464987315 
C10   C     0.72879488032504 0.30588516972367 0.29040303004483 
C11   C     0.20309305038329 0.22875312029704 0.26545336005770 
C12   C     0.67212268984149 0.22883911030922 0.23461377020496 
C13   C     0.25767525022591 0.13473271979007 0.24700898972845 
C14   C     0.76358547981370 0.13481082994125 0.25304177993300 
C15   C     0.15587246990738 0.18035700988741 0.10923054018285 
C16   C     0.93738360067867 0.18040665009585 0.39079512025011 
C17   C     0.24141199940849 0.10890029982159 0.16979253991434 
C18   C     0.90177799009616 0.10896190996849 0.33024249982698 
C19   C     0.31802430918560 0.01278383978372 0.15396710980491 
C20   C     0.01002545002949 0.01284179979310 0.34605655007995 
C21   C     0.32134590968451 0.99024945969789 0.08211846014913 
C22   C     0.15705454960853 0.99029899032103 0.41788654978380 
C23   C     0.11109174947169 0.14758713000150 0.02985835005434 
C24   C     0.05134522045372 0.14762678013063 0.47016158993905 
C25   C     0.21927380981844 0.05681849017030 0.01882886020593 
C26   C     0.18157380997215 0.05685830010203 0.48117131000046 
C27   C     0.22481850020146 0.03264761031356 0.94447895998998 
C28   C     0.33582245075498 0.03269633991492 0.55550581025602 
C29   C     0.12459804975656 0.09521893004084 0.88290991014913 
C30   C     0.35873022983493 0.09526524980906 0.61706686019836 
C31   C     0.96357582012882 0.19762214963565 0.96066347992936 
C32   C     0.04222481980262 0.19765928963494 0.53936289022264 
C33   C     0.98559051937816 0.17598937975041 0.88861502991788 
C34   C     0.20832688909703 0.17603190029055 0.61139078974685 
C35   C     0.85863986087043 0.23072456977054 0.82017177017783 
C36   C     0.21825323997469 0.23076873015473 0.67983105017072 
C37   C     0.70626121983702 0.30071917012355 0.82097982990578 
C38   C     0.06426928097793 0.30075503968766 0.67904807027354 
C39   C     0.65958051058525 0.31516648021954 0.88888824011113 
C40   C     0.88179156977628 0.31519953031520 0.61116533999120 
C41   C     0.78270933922421 0.26061573027940 0.95831748995957 
C42   C     0.86607946985756 0.26065020988531 0.54174137987576 
C43   C     0.71168519991379 0.26623581964177 0.01975317983269 
C44   C     0.67222397050560 0.26626639964644 0.48033888002915 
C45   C     0.54040717963500 0.32794715004071 0.01579751997802 
C46   C     0.50888695932614 0.32797984970920 0.48432118989076 
C47   C     0.42982241955827 0.38757707003400 0.94991861992525 
C48   C     0.53004025965270 0.38761311016597 0.55018913998020 
C49   C     0.48747014046528 0.37972577006576 0.88709127017085 
C50   C     0.71330509064349 0.37976042979004 0.61299053012693 
C51   C     0.11432834034363 0.36229996011652 0.08270752023568 
C52   C     0.94896639009122 0.36233387989227 0.41729225003015 
H1    H     0.08745410948388 0.51872499018949 0.06853397979770 
H2    H     0.95048984027505 0.51875504976632 0.43144094996700 
H3    H     0.06657418041269 0.55751159982529 0.19699314977027 
H4    H     0.67266553949414 0.55758291982930 0.30303636004925 
H5    H     0.11889479943877 0.42088210018684 0.28946904975496 
H6    H     0.53995159962236 0.42098362027432 0.21060311978599 
H7    H     0.20809321037110 0.24699551985499 0.32364490991102 
H8    H     0.56069102037419 0.24708518981760 0.17644308990333 
H9    H     0.31301386910280 0.07713530020233 0.29111618975870 
H10   H     0.73067604978615 0.07722047008810 0.20894359004886 
H11   H     0.38332830976967 0.95912495967001 0.20103997025137 
H12   H     0.98116398981737 0.95919518018084 0.29898689025163 
H13   H     0.39538850974054 0.91991097003899 0.07125705009065 
H14   H     0.25280484918724 0.91995728964026 0.42872492975596 
H15   H     0.31522175001189 0.96490091979439 0.93859434987454 
H16   H     0.43799548004239 0.96495484986945 0.56137180986895 
H17   H     0.13838899020314 0.08064191982803 0.82707071989832 
H18   H     0.48419556999127 0.08069078964984 0.67288771980569 
H19   H     0.88544688057285 0.21495569000976 0.76680286029113 
H20   H     0.35177925975763 0.21501692987806 0.73318685971587 
H21   H     0.61280127976447 0.34325320969140 0.76879163020849 
H22   H     0.07516408973317 0.34328956010664 0.73123229005551 
H23   H     0.79270173976020 0.22072062995888 0.07115158016083 
H24   H     0.65047202978997 0.22074450976067 0.42895189994199 
H25   H     0.49089744983450 0.33072313022803 0.06423541999590 
H26   H     0.36253456030916 0.33075201022931 0.43590678002430 
H27   H     0.29901862980397 0.43856847970175 0.94803196993000 
H28   H     0.40303779055119 0.43861038990944 0.55209635010161 
H29   H     0.39926222991664 0.42287561026898 0.83465591971350 
H30   H     0.72995858941944 0.42291378987825 0.66542042006944 
H31   H     0.11787405952876 0.34653853995144 0.02546360007609 
H32   H     0.06701366034492 0.34656141035639 0.47451689022501 
