data_stdin
_audit_creation_method 'critic2'
_audit_creation_date 2023-8-11
_chemical_formula_sum 'C26 H16'
_cell_formula_units_Z 4
_cell_length_a         7.2943905299
_cell_length_b        10.4872894967
_cell_length_c        24.5140259614
_cell_angle_alpha        64.7109
_cell_angle_beta        95.8049
_cell_angle_gamma       103.6491
_cell_volume          1647.679165
_space_group_crystal_system triclinic
_space_group_IT_number 2
_space_group_name_H-M_alt 'P-1'
_space_group_name_Hall '-P 1'
loop_
_symmetry_equiv_pos_site_id
_symmetry_equiv_pos_as_xyz
 1 'x,y,z'
 2 '-x,-y,-z'
loop_
_atom_site_label
_atom_site_type_symbol
_atom_site_fract_x
_atom_site_fract_y
_atom_site_fract_z
C1    C     0.25631833127814 0.16487809684844 0.83849293801329 
C2    C     0.75638235979640 0.34272591107613 0.66137547588912 
C3    C     0.07550458510912 0.10646865109657 0.82257607042505 
C4    C     0.57551316507977 0.25266470197287 0.67723148402692 
C5    C     0.93221670792751 0.17929199683111 0.81314155324428 
C6    C     0.43240014858241 0.30668607113929 0.68673894343988 
C7    C     0.14270485959671 0.36420545222400 0.84059716151873 
C8    C     0.64313713913753 0.54625557710887 0.65942351713366 
C9    C     0.96253954667153 0.30931336176778 0.82065448239794 
C10   C     0.46295106405411 0.45163717624044 0.67934131000310 
C11   C     0.81798603866536 0.39005112605609 0.80460774592753 
C12   C     0.31862962055243 0.50034192512666 0.69548261504907 
C13   C     0.85745950127746 0.52646230329208 0.80176661259639 
C14   C     0.35833992614958 0.63100716557141 0.69839727576916 
C15   C     0.17383339982967 0.49976669532916 0.84659274351585 
C16   C     0.67445869369576 0.69375849981302 0.65347794086612 
C17   C     0.03772815506144 0.58637285628609 0.81950072677446 
C18   C     0.53858250836119 0.72628506648156 0.68062586793669 
C19   C     0.08401843504994 0.73610754156356 0.80648478535781 
C20   C     0.58507135812566 0.85003014789873 0.69364264406571 
C21   C     0.26264637893612 0.79912809668474 0.81697414776686 
C22   C     0.76367762296141 0.93398105284224 0.68310409469844 
C23   C     0.34264772715479 0.55948268718732 0.87181816768481 
C24   C     0.84324061569775 0.80379456049633 0.62823031420009 
C25   C     0.39555569619832 0.71337234851431 0.84928750397887 
C26   C     0.89636585034473 0.91269201455834 0.65076267645888 
C27   C     0.58165834183917 0.78129956163962 0.85851726549783 
C28   C     0.08248961607847 0.99897824291166 0.64151905013649 
C29   C     0.71142703273960 0.70083180174896 0.88929144878980 
C30   C     0.21208373898705 0.97988303815854 0.61073738589659 
C31   C     0.46466358436993 0.47765775563800 0.91673662526908 
C32   C     0.96505548234842 0.81160701527403 0.58329779073260 
C33   C     0.65474048778063 0.54828144595023 0.92016480625615 
C34   C     0.15517320984672 0.88898801194042 0.57986543089567 
C35   C     0.78901658283370 0.46703728143678 0.95599236625743 
C36   C     0.28929867624837 0.87918680082441 0.54404769200800 
C37   C     0.73634851540501 0.32227578067433 0.99053428426248 
C38   C     0.23644328491507 0.80337909179438 0.50951499388299 
C39   C     0.54215565405920 0.25133936790987 0.99565418822726 
C40   C     0.04220408936073 0.74274565951081 0.50440152224003 
C41   C     0.40367843507930 0.33051845558394 0.96124216889542 
C42   C     0.90387319473578 0.75331688788730 0.53880259709638 
C43   C     0.21180096800455 0.26261671352304 0.97522197632192 
C44   C     0.71194044872034 0.71333799173107 0.52484227450039 
C45   C     0.15920423393000 0.12130268950852 0.01724078950525 
C46   C     0.65916586905736 0.65581022379145 0.48286197706618 
C47   C     0.29605423119022 0.03897620795700 0.04602714170621 
C48   C     0.79588618457055 0.63088903946223 0.45408305400824 
C49   C     0.48470974454805 0.10448824096545 0.03588337899582 
C50   C     0.98458646370640 0.67615594944054 0.46419841650811 
C51   C     0.28841655688583 0.28998791382362 0.84734412786595 
C52   C     0.78868643317645 0.48544474496408 0.65263134548313 
H1    H     0.37307270414187 0.11271977516663 0.84295405424986 
H2    H     0.87301867156225 0.29941970752424 0.65687846187760 
H3    H     0.04978412386447 0.00648536059690 0.81670589258220 
H4    H     0.54963143563980 0.14102325926006 0.68300401848382 
H5    H     0.79341230636977 0.14018231218532 0.79807799621015 
H6    H     0.29357153155120 0.23758398455969 0.70177720273631 
H7    H     0.68088431701664 0.34529856742470 0.79053565442601 
H8    H     0.18152114926689 0.42755405778836 0.70955239881912 
H9    H     0.75320326233180 0.59361711905172 0.78492407783278 
H10   H     0.25427804705016 0.66453011776534 0.71530432549177 
H11   H     0.97805242768794 0.79955166645917 0.78421475327209 
H12   H     0.47926897531061 0.86902731352709 0.71594452342080 
H13   H     0.30595956276716 0.91587625733125 0.80178691696374 
H14   H     0.80715030911645 0.02041831698326 0.69828137888819 
H15   H     0.61929451974123 0.89870902360580 0.83978357371260 
H16   H     0.12028368324615 0.07897091758338 0.66025672617420 
H17   H     0.85664921796825 0.75211221887538 0.89393846262141 
H18   H     0.35733675282892 0.04036206739334 0.60608716329538 
H19   H     0.93549519565744 0.52393975234954 0.95417341592400 
H20   H     0.43581187500612 0.93239567124124 0.54586622297203 
H21   H     0.83968006006634 0.25995129429453 0.01697323646901 
H22   H     0.33965798487837 0.79375375723537 0.48308792880782 
H23   H     0.10372676628236 0.32347098531823 0.95294597773353 
H24   H     0.60396281707647 0.72977442750368 0.54711127479341 
H25   H     0.01077160238489 0.07245426905988 0.02799328152614 
H26   H     0.51069234675041 0.62839956863433 0.47213261911868 
H27   H     0.25265370969721 0.92585984302151 0.07692161734804 
H28   H     0.75235175051265 0.57939631903765 0.42321292240848 
H29   H     0.59327440662779 0.04433376539250 0.05902868326195 
H30   H     0.09305248164394 0.66213878002489 0.44106473256698 
H31   H     0.43016189004134 0.33428077917058 0.85814114747134 
H32   H     0.93047336966646 0.55119119060081 0.64187969945817 
