data_stdin
_audit_creation_method 'critic2'
_audit_creation_date 2023-8-11
_chemical_formula_sum 'C26 H16'
_cell_formula_units_Z 2
_cell_length_a         7.0942884680
_cell_length_b        11.0551226553
_cell_length_c        11.2786265686
_cell_angle_alpha       101.3289
_cell_angle_beta        80.4252
_cell_angle_gamma       104.8841
_cell_volume           831.935918
_space_group_crystal_system triclinic
_space_group_IT_number 2
_space_group_name_H-M_alt 'P-1'
_space_group_name_Hall '-P 1'
loop_
_symmetry_equiv_pos_site_id
_symmetry_equiv_pos_as_xyz
 1 'x,y,z'
 2 '-x,-y,-z'
loop_
_atom_site_label
_atom_site_type_symbol
_atom_site_fract_x
_atom_site_fract_y
_atom_site_fract_z
C1    C     0.63988339052437 0.06849730957247 0.81538539990876 
C2    C     0.76891187953653 0.14872834031764 0.73923564028313 
C3    C     0.80465260021319 0.10451259995261 0.61632216030370 
C4    C     0.59969166989035 0.89357540021177 0.64477781041496 
C5    C     0.71755402065944 0.97867158018159 0.56617210003777 
C6    C     0.73861797069202 0.93746467034582 0.43762293016803 
C7    C     0.63376724958766 0.82174219992544 0.38916745990594 
C8    C     0.51735954049594 0.76316602986943 0.59341238030161 
C9    C     0.51554864072984 0.73423714030403 0.46491714988278 
C10   C     0.39129163041709 0.62013176964998 0.41269101973570 
C11   C     0.26605262946577 0.54116736982840 0.48574836009399 
C12   C     0.42509150997482 0.66367955957079 0.66499553957603 
C13   C     0.27933975013764 0.56080860001607 0.61287561962213 
C14   C     0.15063379964863 0.47672143960165 0.68758508991562 
C15   C     0.16488624008941 0.49345560003414 0.80950314016542 
C16   C     0.46991428966394 0.65898306014772 0.78430195990017 
C17   C     0.32589915967993 0.58318169023396 0.86001187982707 
C18   C     0.34752949990836 0.59298468028328 0.98537401986154 
C19   C     0.51125356947901 0.66788349995315 0.03286358042238 
C20   C     0.67443056986948 0.72736729011365 0.95537765963481 
C21   C     0.65846063960386 0.71786972981331 0.82879869025817 
C22   C     0.83292704025361 0.75967903950046 0.75178330957010 
C23   C     0.00970722067397 0.81519558034315 0.79751802027253 
C24   C     0.02011163022392 0.83421844028811 0.92363733027015 
C25   C     0.85517014018180 0.78948864975153 0.00088726986365 
C26   C     0.55860223050692 0.94404887998138 0.76915181998034 
H1    H     0.60136746040078 0.10536396978251 0.91073071031307 
H2    H     0.83465209033146 0.24608588972677 0.77689178041688 
H3    H     0.89721869992236 0.16681120999179 0.55507558042096 
H4    H     0.83261237030609 0.00178849980748 0.37887490972398 
H5    H     0.63750767040233 0.79436854019780 0.29091248991926 
H6    H     0.39154152043591 0.59926536987527 0.31419225012613 
H7    H     0.15948014989659 0.45925542966950 0.44702675007072 
H8    H     0.03825660941593 0.40092649026603 0.64582391031135 
H9    H     0.06148425959381 0.43335751034661 0.86873262977941 
H10   H     0.23234716032335 0.53613378969869 0.04168814996400 
H11   H     0.52592780022825 0.67552732983625 0.12870906030468 
H12   H     0.82784687056794 0.74663227034098 0.65427992990547 
H13   H     0.14195062989396 0.84368348956391 0.73549638981273 
H14   H     0.15752759003709 0.88224836982861 0.96012055978697 
H15   H     0.86332617989765 0.79970144974278 0.09815035974209 
H16   H     0.45920508970293 0.88384300046357 0.82933902038693 
