data_stdin
_audit_creation_method 'critic2'
_audit_creation_date 2023-8-11
_chemical_formula_sum 'C26 H16'
_cell_formula_units_Z 8
_cell_length_a         7.0276577330
_cell_length_b        22.0116148294
_cell_length_c        24.4314430687
_cell_angle_alpha        95.2470
_cell_angle_beta        73.3005
_cell_angle_gamma       108.5402
_cell_volume          3432.040733
_space_group_crystal_system triclinic
_space_group_IT_number 2
_space_group_name_H-M_alt 'P-1'
_space_group_name_Hall '-P 1'
loop_
_symmetry_equiv_pos_site_id
_symmetry_equiv_pos_as_xyz
 1 'x,y,z'
 2 '-x,-y,-z'
loop_
_atom_site_label
_atom_site_type_symbol
_atom_site_fract_x
_atom_site_fract_y
_atom_site_fract_z
C1    C     0.70769158087081 0.51543235484568 0.16302496756859 
C2    C     0.03374522697168 0.51550860301999 0.33699969954208 
C3    C     0.67624848015469 0.98457850823694 0.66306681136089 
C4    C     0.00206815727805 0.98443773568911 0.83698333903800 
C5    C     0.80597221329221 0.47679810997543 0.18028239603224 
C6    C     0.16644754697997 0.47684892527488 0.31977885469813 
C7    C     0.85165249153630 0.02312295694608 0.68030401393915 
C8    C     0.21188284093608 0.02300281004066 0.81977933616001 
C9    C     0.99909092185197 0.50498191976423 0.19001606164418 
C10   C     0.37902948201985 0.50501458051676 0.31001324477840 
C11   C     0.98842690420832 0.99483886244659 0.69001186804258 
C12   C     0.36812092204000 0.99473909541038 0.81003505785334 
C13   C     0.00531936546164 0.61086836013073 0.16263380681244 
C14   C     0.33068673516145 0.61093413920259 0.33732641430066 
C15   C     0.78320858182173 0.88902576387568 0.66263398260930 
C16   C     0.10833332861947 0.88890289263219 0.83733889750727 
C17   C     0.10027382072374 0.57168684394698 0.18246746452839 
C18   C     0.46521177587495 0.57172973550397 0.31750753106710 
C19   C     0.95635863745959 0.92811558691526 0.68245898351264 
C20   C     0.32106067388522 0.92801131989975 0.81752929014311 
C21   C     0.28912719091338 0.60023392042578 0.19848721343711 
C22   C     0.68607468989193 0.60026083680702 0.30145563287109 
C23   C     0.08809276224026 0.89946116059191 0.69847360837536 
C24   C     0.48483975636771 0.89937243151758 0.80147734471049 
C25   C     0.36840199668448 0.66523421248417 0.20060590158486 
C26   C     0.76962619891065 0.66526027704778 0.29931641906083 
C27   C     0.03749900577175 0.83445069365926 0.70059604890763 
C28   C     0.43856215381544 0.83436244285947 0.79932904704942 
C29   C     0.10722707207768 0.67970440946979 0.15716033110494 
C30   C     0.42171450143857 0.67976984132147 0.34278673551968 
C31   C     0.74761669154450 0.82017345551178 0.65714329290645 
C32   C     0.06186460482136 0.82005376608570 0.84280620091922 
C33   C     0.27377941245193 0.70585977140798 0.18305888755795 
C34   C     0.63999748123085 0.70590538800665 0.31687720292293 
C35   C     0.86182152730449 0.79392035877605 0.68304408732499 
C36   C     0.22785192090716 0.79381492645070 0.81689212263453 
C37   C     0.34130610022167 0.77257431582006 0.19482417933998 
C38   C     0.73105108532720 0.77261830783985 0.30511872888311 
C39   C     0.79606765659125 0.72720229576945 0.69481093092078 
C40   C     0.18566544826461 0.72709254594521 0.80512925413311 
C41   C     0.24011002498023 0.81178307053027 0.18375575238464 
C42   C     0.60776159309555 0.81183736558459 0.31619817852571 
C43   C     0.61666269144341 0.68809013682915 0.68373160121101 
C44   C     0.98414762813253 0.68796637198744 0.81621417743154 
C45   C     0.03787096709812 0.72385224182570 0.13287580752262 
C46   C     0.30388235699961 0.72393035519528 0.36708503801884 
C47   C     0.59018065971948 0.77611201185546 0.63284304143175 
C48   C     0.85592386812226 0.77598276457609 0.86711278028187 
C49   C     0.08672290775918 0.78854422006108 0.15320725877223 
C50   C     0.39334997780909 0.78861502568712 0.34675352206008 
C51   C     0.50982698231627 0.71141908022674 0.65316902766861 
C52   C     0.81621754194926 0.71128698283411 0.84678154274605 
C53   C     0.98067221200892 0.83010252063723 0.14352393237547 
C54   C     0.26794191436436 0.83017355648763 0.35644754986500 
C55   C     0.32091595013903 0.66994212660518 0.64346434758539 
C56   C     0.60792657782091 0.66980576504798 0.85649302720659 
C57   C     0.83135315963066 0.80911811899390 0.11468867557882 
C58   C     0.06103183590243 0.80920096391422 0.38529873166526 
C59   C     0.21366655678391 0.69100074445156 0.61459791802699 
C60   C     0.44299211859653 0.69085919735756 0.88537583320447 
C61   C     0.92275395569396 0.70868071613618 0.09012790572283 
C62   C     0.10340802558306 0.70877630345586 0.40984893104169 
C63   C     0.50545768667093 0.79136695430666 0.59009107449659 
C64   C     0.68580638308764 0.79123209643667 0.90988290366464 
C65   C     0.80359585626941 0.74890989822618 0.08618935045725 
C66   C     0.97636843075734 0.74900669547576 0.41380627864920 
C67   C     0.30612729855958 0.75120629821697 0.58611484912985 
C68   C     0.47853202975286 0.75106574104403 0.91387325156574 
C69   C     0.66427023743451 0.73137874677865 0.05083262767893 
C70   C     0.76644959472216 0.73149195960207 0.44919174515703 
C71   C     0.20191531244515 0.76879732087970 0.55073999972277 
C72   C     0.30366610791906 0.76865194685211 0.94928207382354 
C73   C     0.65525830762113 0.67888607421818 0.01620098072322 
C74   C     0.68829420767662 0.67900538869378 0.48381879347741 
C75   C     0.29762712291045 0.82130450727893 0.51614470768692 
C76   C     0.33029506234998 0.82116842093296 0.98388132318035 
C77   C     0.79614170902976 0.64304545959603 0.01173814930293 
C78   C     0.82027602822764 0.64315363973665 0.48824633501450 
C79   C     0.50989918975748 0.85709748297699 0.51173347381578 
C80   C     0.53378571266821 0.85697988798584 0.98826105961972 
C81   C     0.93569486277129 0.65882793984822 0.04724794054431 
C82   C     0.03074727954236 0.65893461909518 0.45272283250958 
C83   C     0.61786879009591 0.84123452988344 0.54724044569814 
C84   C     0.71265842565020 0.84110544392118 0.95273589497052 
C85   C     0.09306173425760 0.62839776156324 0.03504752805318 
C86   C     0.16379942814021 0.62851226089290 0.46489796086600 
C87   C     0.83587294476364 0.87160021181822 0.53505552206855 
C88   C     0.90636615737419 0.87146816433264 0.96489867724486 
C89   C     0.10455093661272 0.58237053748871 0.99285601988276 
C90   C     0.09104260152516 0.58247278105915 0.50706494998969 
C91   C     0.93919812444470 0.91763445201747 0.49288630658342 
C92   C     0.92553307880299 0.91753676356376 0.00704696470686 
C93   C     0.95713238463973 0.56365085243638 0.96092474624692 
C94   C     0.87984450000624 0.56374532184966 0.53900168961741 
C95   C     0.82921341219517 0.93643907338069 0.46096644562795 
C96   C     0.75182117348211 0.93636570355029 0.03897398563851 
C97   C     0.80726055582310 0.59430574368941 0.96993728164350 
C98   C     0.74793810658326 0.59440616567803 0.53002694709345 
C99   C     0.61824966606121 0.90585465390440 0.46996680373595 
C100  C     0.55878088150749 0.90576658416236 0.03001203183914 
C101  C     0.80490140628449 0.58052408157149 0.15453290601368 
C102  C     0.11406692301930 0.58061019607345 0.34544024435976 
C103  C     0.64345570203548 0.91947244937658 0.65455939456783 
C104  C     0.95237412071301 0.91932775182722 0.84543472941660 
H1    H     0.55281289427621 0.49436361820538 0.15665790826244 
H2    H     0.86613564377779 0.49444922190189 0.34338229437235 
H3    H     0.56346900223982 0.00572746143365 0.65673499741941 
H4    H     0.87659777418196 0.00557567248756 0.84333597248121 
H5    H     0.73014398191686 0.42543055512217 0.18644440883492 
H6    H     0.10286543561568 0.42547179810131 0.31366768861517 
H7    H     0.87840462906191 0.07449946906249 0.68648887247805 
H8    H     0.25092327959967 0.07438417264947 0.81364640490370 
H9    H     0.07564486482560 0.47669004683050 0.20529596363692 
H10   H     0.48604247253829 0.47669395963145 0.29475245145503 
H11   H     0.12144601831134 0.02306747146762 0.70527881005326 
H12   H     0.53161205824165 0.02299365987585 0.79478539329012 
H13   H     0.36014662561443 0.56952122382903 0.21272623914630 
H14   H     0.78550833932885 0.56953419331561 0.28721400931101 
H15   H     0.22039873800974 0.93010423659876 0.71271011506775 
H16   H     0.64556652258696 0.93002706189729 0.78724200280861 
H17   H     0.50336555188597 0.68761486296095 0.21693712294381 
H18   H     0.93721179743638 0.68762514204611 0.28296383774901 
H19   H     0.12766865919158 0.81198862345390 0.71692757244059 
H20   H     0.56139491056856 0.81191377857387 0.78297397209300 
H21   H     0.46562625861943 0.79034975358623 0.21587503721692 
H22   H     0.89742298658981 0.79038464575479 0.28406516258372 
H23   H     0.88477372984320 0.70935310862583 0.71587453243213 
H24   H     0.31647857464148 0.70924917031442 0.78406657770431 
H25   H     0.27802899074822 0.86190033267313 0.19694359241124 
H26   H     0.67203326802710 0.86195280970301 0.30301740261144 
H27   H     0.55446709833943 0.63797705276507 0.69691725825340 
H28   H     0.94832861782758 0.63784731497673 0.80303447788883 
H29   H     0.01808300520021 0.87846785363990 0.16097669442558 
H30   H     0.34019868681651 0.87853141712086 0.33899053762710 
H31   H     0.26170534498838 0.62157809045727 0.66092158243625 
H32   H     0.58360852353870 0.62143962104902 0.83902921752723 
H33   H     0.74183665741684 0.83937561537060 0.10944727575356 
H34   H     0.96104940320688 0.83946326945318 0.39054636900795 
H35   H     0.06385244721918 0.66080434754885 0.60932791413768 
H36   H     0.28265696853667 0.66065450534364 0.89065038919951 
H37   H     0.56762697093145 0.76166144372028 0.05151869427661 
H38   H     0.67117989425445 0.76178323210367 0.44852758491487 
H39   H     0.04495487468232 0.73854775035767 0.55138494346809 
H40   H     0.14798543312707 0.73839012533915 0.94865663274531 
H41   H     0.55026450507781 0.66612232644328 0.98888251569880 
H42   H     0.52874970693243 0.66625494233583 0.51115404388821 
H43   H     0.21819953220297 0.83411295728407 0.48881272749030 
H44   H     0.19626733686842 0.83397122838798 0.01123400480252 
H45   H     0.21037471832564 0.64255339597274 0.05843440338666 
H46   H     0.32782881875957 0.64268104822360 0.44150861428364 
H47   H     0.92488964620947 0.85738320050880 0.55843257167702 
H48   H     0.04203953210243 0.85722375744088 0.94151817964604 
H49   H     0.22866520755146 0.56030770326665 0.98409721108145 
H50   H     0.19768424734011 0.56040991974485 0.51580640365172 
H51   H     0.10727614719196 0.93963586999823 0.48413409979113 
H52   H     0.07615633674017 0.93954191620959 0.01578307808840 
H53   H     0.96528012449661 0.52651020303290 0.92856217664008 
H54   H     0.82339125870810 0.52659583509055 0.57134485225512 
H55   H     0.91147496872731 0.97358213296618 0.42861835065587 
H56   H     0.76954257584713 0.97353610383937 0.07130439165479 
H57   H     0.69746942220826 0.58256709493057 0.94397182675491 
H58   H     0.58629704185824 0.58266414048217 0.55600891346366 
H59   H     0.53192664087637 0.91766017965055 0.44401422681166 
H60   H     0.42064907507233 0.91758590761925 0.05598384437675 
H61   H     0.72226264290996 0.60908708247414 0.14276293659714 
H62   H     0.00797367342149 0.60919707504754 0.35718481278530 
H63   H     0.50382177658509 0.89097638294335 0.64280068911573 
H64   H     0.78927491789462 0.89080970558720 0.85717038078479 
