data_stdin
_audit_creation_method 'critic2'
_audit_creation_date 2023-8-11
_chemical_formula_sum 'C26 H16'
_cell_formula_units_Z 4
_cell_length_a        10.1292930353
_cell_length_b        11.4638024712
_cell_length_c        17.1122761439
_cell_angle_alpha        99.4294
_cell_angle_beta        72.7305
_cell_angle_gamma       116.1908
_cell_volume          1701.435019
_space_group_crystal_system triclinic
_space_group_IT_number 2
_space_group_name_H-M_alt 'P-1'
_space_group_name_Hall '-P 1'
loop_
_symmetry_equiv_pos_site_id
_symmetry_equiv_pos_as_xyz
 1 'x,y,z'
 2 '-x,-y,-z'
loop_
_atom_site_label
_atom_site_type_symbol
_atom_site_fract_x
_atom_site_fract_y
_atom_site_fract_z
C1    C     0.84871861050492 0.98278039979091 0.64610644970185 
C2    C     0.01231863948307 0.51737955003527 0.85398401028965 
C3    C     0.96934245975036 0.09511375991028 0.66589744010350 
C4    C     0.04040464985992 0.40496481961002 0.83419551007518 
C5    C     0.11714160950091 0.11074830970781 0.63011526021994 
C6    C     0.13668205952847 0.38924162995626 0.86994013996378 
C7    C     0.02647380956174 0.89458955952762 0.56027566011247 
C8    C     0.19224640952419 0.60546740974731 0.93972207001307 
C9    C     0.14884687027966 0.01355972028343 0.57583106976326 
C10   C     0.21119436948401 0.48641921005114 0.92417625018618 
C11   C     0.30173027986702 0.03584057985337 0.53350208997428 
C12   C     0.29937148999670 0.46405609962001 0.96645897016212 
C13   C     0.33071015964558 0.94872252982674 0.47421957018601 
C14   C     0.35609496021558 0.55118452959136 0.02569237007201 
C15   C     0.06022993078696 0.79378172043771 0.50651154973799 
C16   C     0.27296336937189 0.70627087955776 0.99342554021853 
C17   C     0.21169630942157 0.82926855956345 0.45726856014640 
C18   C     0.33959909007038 0.67071979020618 0.04262805016348 
C19   C     0.24475449017135 0.75023792039871 0.38774757007375 
C20   C     0.38209557033565 0.74977854009536 0.11209772999336 
C21   C     0.12914876038966 0.64454625033512 0.36425030972939 
C22   C     0.34871581934934 0.85557718973678 0.13558999005725 
C23   C     0.94801361940418 0.66394595969362 0.49398549997882 
C24   C     0.27805256009574 0.83616489044665 0.00593906990398 
C25   C     0.97881147997469 0.59980821006109 0.41611723018579 
C26   C     0.29505846033641 0.90035881007308 0.08376858977259 
C27   C     0.85874225941381 0.49177081953578 0.38994575013920 
C28   C     0.25686233997949 0.00849869971926 0.10995768021027 
C29   C     0.71441164002658 0.44665128046575 0.43974566993785 
C30   C     0.20748607996836 0.05364690040909 0.06021389016884 
C31   C     0.80671201968974 0.59411810956958 0.55270714999687 
C32   C     0.26533080027033 0.90599792991315 0.94724970982628 
C33   C     0.68657225986220 0.49273531025420 0.52262785018843 
C34   C     0.21647156026927 0.00747385029853 0.97735892979301 
C35   C     0.53748854029921 0.43507777024123 0.57559616980574 
C36   C     0.17799554011700 0.06512843953303 0.92445146014499 
C37   C     0.50851591018317 0.46941170005023 0.65702155990545 
C38   C     0.19610484941026 0.03068917993100 0.84304682022501 
C39   C     0.63078926053283 0.55543023049832 0.69219821025268 
C40   C     0.26757435005136 0.94457610977904 0.80781705973500 
C41   C     0.78186034981119 0.61410287985904 0.64095310009436 
C42   C     0.30877601977989 0.88592416963235 0.85899936992564 
C43   C     0.90135004996044 0.68402780042856 0.68013613022375 
C44   C     0.39759791956078 0.81592689974950 0.81974973980988 
C45   C     0.87307487952398 0.70384320988326 0.76427506025453 
C46   C     0.43368269009210 0.79603217023773 0.73561287029794 
C47   C     0.72272209008987 0.65434147983197 0.81364642016909 
C48   C     0.38214608031869 0.84550573045702 0.68631325983952 
C49   C     0.60405976006885 0.57989404003669 0.77799903028482 
C50   C     0.30219750927635 0.92001254975173 0.72201977028787 
C51   C     0.87694548965813 0.88575149957461 0.59450522009353 
C52   C     0.08586919993778 0.61439079984594 0.90554387005404 
H1    H     0.73225586991443 0.97304618037521 0.67016282011026 
H2    H     0.92972129020867 0.52719128039812 0.82996024006046 
H3    H     0.94586231042541 0.17103645998957 0.70645668004527 
H4    H     0.98165833935783 0.32905335952822 0.79366624000364 
H5    H     0.21226097020393 0.20010196973459 0.64137685982262 
H6    H     0.15371043975401 0.29983249039371 0.85868177011605 
H7    H     0.39386919947388 0.12634788977103 0.54649113992457 
H8    H     0.31400634048138 0.37349502035652 0.95346897006547 
H9    H     0.44586488005001 0.96953232005069 0.43738543994201 
H10   H     0.41353148988674 0.53032896979630 0.06249517973796 
H11   H     0.36182196038472 0.78034591017326 0.35098270005812 
H12   H     0.43221449006451 0.71961594956594 0.14882871998205 
H13   H     0.15080443018587 0.59007364007037 0.30718229020729 
H14   H     0.36774128997062 0.91009715044178 0.19261899004938 
H15   H     0.88266884961751 0.44883830002137 0.32864429023159 
H16   H     0.26237444976319 0.05147423992000 0.17123414015493 
H17   H     0.61969434941011 0.37114433984025 0.41798169029647 
H18   H     0.16650594954094 0.12923580980419 0.08199221016780 
H19   H     0.44636046995452 0.36484608023688 0.54866161981412 
H20   H     0.13014462009959 0.13543813969502 0.95141926005901 
H21   H     0.39359391959279 0.42955245045551 0.69679760029049 
H22   H     0.16079062053546 0.07053886014833 0.80332292979599 
H23   H     0.01824439942191 0.72152954972247 0.64345080017122 
H24   H     0.44033581995195 0.77843183983593 0.85637862972050 
H25   H     0.96837829965498 0.75812505018313 0.79189134028642 
H26   H     0.50238933010448 0.74170793022005 0.70794112970858 
H27   H     0.69972746027891 0.67220331958418 0.87967275971632 
H28   H     0.40737380926117 0.82760315955648 0.62028981014484 
H29   H     0.48759455954166 0.53774723972273 0.81554464996586 
H30   H     0.26539856022533 0.96214942013638 0.68451861997356 
H31   H     0.78210992986902 0.80182208976228 0.57846014975546 
H32   H     0.05890715004612 0.69838250954632 0.92159292988363 
