data_stdin
_audit_creation_method 'critic2'
_audit_creation_date 2023-8-11
_chemical_formula_sum 'C26 H16'
_cell_formula_units_Z 4
_cell_length_a         6.8828820159
_cell_length_b        12.9264807951
_cell_length_c        23.9705199461
_cell_angle_alpha        98.7815
_cell_angle_beta       106.6741
_cell_angle_gamma        57.8567
_cell_volume          1729.862956
_space_group_crystal_system triclinic
_space_group_IT_number 1
_space_group_name_H-M_alt 'P1'
_space_group_name_Hall 'P 1'
loop_
_symmetry_equiv_pos_site_id
_symmetry_equiv_pos_as_xyz
 1 'x,y,z'
loop_
_atom_site_label
_atom_site_type_symbol
_atom_site_fract_x
_atom_site_fract_y
_atom_site_fract_z
C1    C     0.25730028996661 0.85960244005186 0.01228060995288 
C2    C     0.23345641931434 0.85951827025992 0.48771162992487 
C3    C     0.47641919078870 0.14037510999732 0.51225931017258 
C4    C     0.45250000983144 0.14048303978399 0.98775431988255 
C5    C     0.09701388026822 0.89778421965306 0.04716998991463 
C6    C     0.00347143894765 0.89771985045029 0.45280916012088 
C7    C     0.39252181005225 0.10217734979258 0.54716570990511 
C8    C     0.29894233901085 0.10223476031474 0.95282795980908 
C9    C     0.97490341962822 0.83854827039807 0.04238897988878 
C10   C     0.89083521111939 0.83851025965445 0.45756487009979 
C11   C     0.15205691987281 0.16137825015357 0.54239971010677 
C12   C     0.06796024007731 0.16139611979234 0.95754823978697 
C13   C     0.15133623028508 0.70986923977217 0.96302780988858 
C14   C     0.22571379978207 0.70984051035002 0.53694435012819 
C15   C     0.07116839020919 0.29006912955568 0.46302674991048 
C16   C     0.14542514075293 0.29011728975772 0.03694241004143 
C17   C     0.00260118003222 0.74279744985161 0.00173589006528 
C18   C     0.99967905988680 0.74276414999393 0.49821258993384 
C19   C     0.98832992984182 0.25711411001892 0.50174834003451 
C20   C     0.98529762988806 0.25714568958962 0.99819285006390 
C21   C     0.88987985967806 0.67617807039192 0.00062863017948 
C22   C     0.88913688057499 0.67614295968890 0.49928376978406 
C23   C     0.74250679953780 0.32369135035915 0.50066401015498 
C24   C     0.74158858002424 0.32373012958872 0.99923699008537 
C25   C     0.93536892985004 0.57598188010109 0.96577625003394 
C26   C     0.00419468982380 0.57595463018994 0.53413804985562 
C27   C     0.58766801023382 0.42387669992844 0.46581214987426 
C28   C     0.65633685003723 0.42391273031833 0.03409262006577 
C29   C     0.17018509974090 0.61481924993107 0.91989637999166 
C30   C     0.33064814978292 0.61480681020286 0.58007157992161 
C31   C     0.89997965916579 0.38510834019945 0.41990071008742 
C32   C     0.06035201069150 0.38514256001652 0.08006788003429 
C33   C     0.08227869985374 0.54066891006933 0.92654224989973 
C34   C     0.22943661965873 0.54066241040978 0.57340380989023 
C35   C     0.66390474929593 0.45920526993630 0.42655875990099 
C36   C     0.81096087023104 0.45923435989864 0.07338452008476 
C37   C     0.14776634022008 0.42808641009328 0.89595450016991 
C38   C     0.35600139935989 0.42809020010221 0.60399511984481 
C39   C     0.50427234946341 0.57176556969058 0.39596292982802 
C40   C     0.71243183061777 0.57179836961141 0.10397791995167 
C41   C     0.30692280872462 0.38692032043425 0.86267306978739 
C42   C     0.58166000032534 0.38691656019824 0.63728022986586 
C43   C     0.58104040047092 0.61297951980793 0.36267003983481 
C44   C     0.85569958019372 0.61302772002274 0.13727550004390 
C45   C     0.28803438988289 0.58492606971294 0.87355788984499 
C46   C     0.54104673933798 0.58492070988105 0.62642305981586 
C47   C     0.95799318086192 0.41504521958548 0.37355710015409 
C48   C     0.21093169972612 0.41508508992424 0.12642849019049 
C49   C     0.38351173002565 0.46280577998468 0.85142014987367 
C50   C     0.68076580051585 0.46279151963577 0.64854617020743 
C51   C     0.80929347010063 0.53716172016778 0.35141944003069 
C52   C     0.10644349910559 0.53721771045253 0.14854661000854 
C53   C     0.55502217085675 0.41779820984244 0.81832186006772 
C54   C     0.91841992036823 0.41778707005209 0.68164204013867 
C55   C     0.89076081061241 0.58223071967302 0.31832302984368 
C56   C     0.25403671025118 0.58229989955070 0.18164108998688 
C57   C     0.62778624021494 0.49043876019265 0.80670319991056 
C58   C     0.01436421977423 0.49044765967073 0.69328434986734 
C59   C     0.10869609956406 0.50965655961627 0.30670370982783 
C60   C     0.49519421020575 0.50971367993955 0.19328978006882 
C61   C     0.31659687071523 0.66815580996005 0.84718538013271 
C62   C     0.62226060058537 0.66816133974809 0.65282064982738 
C63   C     0.15291745090123 0.33187154979822 0.34718294006664 
C64   C     0.45852522968291 0.33191583965477 0.15283179991359 
C65   C     0.50499565971167 0.61767165003598 0.81914635015326 
C66   C     0.86667410029741 0.61769369025125 0.68086826004660 
C67   C     0.24032117976831 0.38242032959865 0.31914636982747 
C68   C     0.60195296916083 0.38246160015260 0.18087848995155 
C69   C     0.56214301064076 0.69502843983279 0.79969434010048 
C70   C     0.96262859072776 0.69507410962783 0.70035922992513 
C71   C     0.45208981028156 0.30512448027667 0.29969914008601 
C72   C     0.85256482946287 0.30514913986979 0.20036307996643 
C73   C     0.42279696027340 0.81908466023658 0.80167655004572 
C74   C     0.81926743055188 0.81912987979791 0.69840930999259 
C75   C     0.56079695983003 0.18106022015149 0.30168009009892 
C76   C     0.95727283994093 0.18108426003930 0.19840848005085 
C77   C     0.20788390064936 0.87369885974350 0.81965987998873 
C78   C     0.56842775019311 0.87371347977886 0.68041439015354 
C79   C     0.45513592013811 0.12637517974589 0.31965778003409 
C80   C     0.81565180013116 0.12641889014379 0.18041742004152 
C81   C     0.15030369980142 0.79898289034817 0.84163275991155 
C82   C     0.46700716956788 0.79897768005867 0.65839597006353 
C83   C     0.24822056074700 0.20103298008175 0.34162581011904 
C84   C     0.56486889055505 0.20108737995126 0.15840836989151 
C85   C     0.92162647932249 0.85570629020945 0.85158585010929 
C86   C     0.21844386954651 0.85565784038458 0.64843100981531 
C87   C     0.13301090017401 0.14424192975381 0.35157180018373 
C88   C     0.42970473972635 0.14433682026167 0.14844971989211 
C89   C     0.76236331919137 0.97948081030739 0.84285593981708 
C90   C     0.07657385029823 0.97941006985175 0.65720477010556 
C91   C     0.22123612044089 0.02045608960835 0.34283955994014 
C92   C     0.53528273071447 0.02057203970960 0.15721782984098 
C93   C     0.82455869030318 0.05320158993016 0.82372363019768 
C94   C     0.17693595934551 0.05315062002492 0.67639258987106 
C95   C     0.43077598103125 0.94679190973332 0.32371320020520 
C96   C     0.78301677967044 0.94689632019177 0.17639351985078 
C97   C     0.04366297945161 0.00076229967640 0.81214325984617 
C98   C     0.41916935962886 0.00075698006510 0.68797597008963 
C99   C     0.54498088914990 0.99929878002361 0.31213777979269 
C100  C     0.92042716911246 0.99936130022128 0.18797376002013 
C101  C     0.28339910998193 0.76798015980872 0.97141314993835 
C102  C     0.34112206981275 0.76791488986298 0.52858183986301 
C103  C     0.31934365969242 0.23199354027980 0.47139554009617 
C104  C     0.37693013993573 0.23210581967705 0.02860308009934 
H1    H     0.36040980065886 0.90292460971916 0.01716501020927 
H2    H     0.32686151928006 0.90281008036282 0.48283098015195 
H3    H     0.66608736945301 0.09707368023504 0.51712809991163 
H4    H     0.63243554906954 0.09720778018580 0.98288977992179 
H5    H     0.07094296018083 0.97238390990019 0.07814671017210 
H6    H     0.91557661037680 0.97231482026497 0.42183527012611 
H7    H     0.51558013065945 0.02759360978413 0.57814600000427 
H8    H     0.36021909948205 0.02764456019850 0.92185450986130 
H9    H     0.85600872938130 0.86453746996330 0.07036863984318 
H10   H     0.71606948969261 0.86450983973521 0.42956149983361 
H11   H     0.08518734952218 0.13536972039486 0.57039469011442 
H12   H     0.94524290935160 0.13536288992028 0.92951896981669 
H13   H     0.77636509952515 0.70285194035652 0.03008967979015 
H14   H     0.71679926979968 0.70280104967858 0.46979879986737 
H15   H     0.68237862964351 0.29699763011002 0.53013807001258 
H16   H     0.62258223064053 0.29705289967599 0.96973416008005 
H17   H     0.86109019019717 0.52052560042195 0.96736392003780 
H18   H     0.92674520945823 0.52048537006229 0.53252107995346 
H19   H     0.40258513007866 0.47931001017613 0.46741678990972 
H20   H     0.46802149009591 0.47937032970387 0.03245792985979 
H21   H     0.08062459961077 0.37251632974944 0.90264154006098 
H22   H     0.27547278026960 0.37252908980703 0.59729759978550 
H23   H     0.32607871939193 0.62727644043422 0.40265188996121 
H24   H     0.52086460055727 0.62731394008993 0.09727050008246 
H25   H     0.37424484042840 0.29593932002577 0.84345698016753 
H26   H     0.68736660037451 0.29593049980736 0.65648852001145 
H27   H     0.46642676972804 0.70394823969959 0.34344571000485 
H28   H     0.77948156926480 0.70401147029729 0.15648510990741 
H29   H     0.63272717026808 0.32307909034670 0.80380434997367 
H30   H     0.02515732944309 0.32305049004994 0.69613360008442 
H31   H     0.77908592061939 0.67695193956203 0.30381169994929 
H32   H     0.17133849921022 0.67704488026700 0.19612095999998 
H33   H     0.76826213993712 0.45499354005076 0.78429190978782 
H34   H     0.19961913089948 0.45500878969079 0.71569702989035 
H35   H     0.17824628945580 0.54515280033127 0.28429103992116 
H36   H     0.60952536051861 0.54521551022720 0.21570093012621 
H37   H     0.71686556028382 0.65246075986711 0.78184748993554 
H38   H     0.15300582077037 0.65252413996154 0.71821279004361 
H39   H     0.52166725000619 0.34774172996363 0.28185728992276 
H40   H     0.95781256886443 0.34775619038531 0.21821192995370 
H41   H     0.46520584991864 0.87752067977342 0.78589554995765 
H42   H     0.89316538008823 0.87758040971244 0.71422343008233 
H43   H     0.72000380079360 0.12266483969566 0.28590202016925 
H44   H     0.14799416988134 0.12268543044297 0.21421385005833 
H45   H     0.86679796024422 0.80047142977436 0.86480647021720 
H46   H     0.13724282979033 0.80040415967309 0.63517377988777 
H47   H     0.96778504984394 0.19943647020848 0.36478698981487 
H48   H     0.23808242002124 0.19954929016630 0.13520308996926 
H49   H     0.58697535890446 0.01975610041048 0.85031521991960 
H50   H     0.88628988063263 0.01964545999400 0.64974389992122 
H51   H     0.12641462995068 0.98012598980053 0.35029074983389 
H52   H     0.42550704037272 0.98027799032626 0.14976332010580 
H53   H     0.69905653967318 0.15070552990039 0.81730676991197 
H54   H     0.06422375105392 0.15062765987564 0.68287186021115 
H55   H     0.50021939039752 0.84928045991920 0.31728989978964 
H56   H     0.86521395976492 0.84940992987555 0.18287120979917 
H57   H     0.09197132949009 0.05561579011269 0.79541968019166 
H58   H     0.50084422966925 0.05562272038545 0.70474694008924 
H59   H     0.70291523017327 0.94450110978213 0.29541351019846 
H60   H     0.11175212974754 0.94454769961469 0.20473975985612 
H61   H     0.41075246011347 0.73924331985830 0.94575774991818 
H62   H     0.51973208881658 0.73916075040948 0.55425063984928 
H63   H     0.38922526990262 0.26074271043706 0.44573288983156 
H64   H     0.49801577069226 0.26092645005043 0.05426724007337 
