data_stdin
_audit_creation_method 'critic2'
_audit_creation_date 2023-8-11
_chemical_formula_sum 'C26 H16'
_cell_formula_units_Z 4
_cell_length_a         8.2270235286
_cell_length_b        15.6152495242
_cell_length_c        17.3228386067
_cell_angle_alpha        75.6228
_cell_angle_beta       118.2470
_cell_angle_gamma       121.6918
_cell_volume          1668.078085
_space_group_crystal_system triclinic
_space_group_IT_number 2
_space_group_name_H-M_alt 'P-1'
_space_group_name_Hall '-P 1'
loop_
_symmetry_equiv_pos_site_id
_symmetry_equiv_pos_as_xyz
 1 'x,y,z'
 2 '-x,-y,-z'
loop_
_atom_site_label
_atom_site_type_symbol
_atom_site_fract_x
_atom_site_fract_y
_atom_site_fract_z
C1    C     0.83504479918264 0.84933071991619 0.50497374972833 
C2    C     0.62774409009855 0.65125656965862 0.99514443999840 
C3    C     0.75628061946331 0.89544967987691 0.42558818971419 
C4    C     0.61554968969109 0.60499253999385 0.07454640968173 
C5    C     0.66247461037427 0.84696391014247 0.34748995010882 
C6    C     0.77449091040284 0.65328791033087 0.15266967014427 
C7    C     0.73410250066469 0.70710337010357 0.42620390000455 
C8    C     0.96813656992963 0.79313053035770 0.07395473969543 
C9    C     0.64492331068141 0.75206698015766 0.34601724005837 
C10   C     0.94932696032205 0.74810494976315 0.15416128018086 
C11   C     0.52542246019676 0.69808555972645 0.26559776025016 
C12   C     0.09819423041647 0.80197536009866 0.23461384972309 
C13   C     0.48110748999141 0.60067271988631 0.26603450003140 
C14   C     0.24758828919908 0.89931973972609 0.23420622999750 
C15   C     0.71164310917545 0.60881955972412 0.42438709973734 
C16   C     0.14565476024379 0.89127367037094 0.07579175017732 
C17   C     0.56571854930454 0.55310245012433 0.34481617967870 
C18   C     0.27003180963140 0.94690341967939 0.15542492971125 
C19   C     0.49483322013407 0.44823900000904 0.34351339990315 
C20   C     0.41150871968989 0.05168828990512 0.15678091985709 
C21   C     0.54818005943335 0.39816198015794 0.42031122982597 
C22   C     0.41172558013706 0.10180253996150 0.07999694999038 
C23   C     0.80963384037285 0.55975293034028 0.50001204031464 
C24   C     0.19059334914075 0.94028441968597 0.00012847997491 
C25   C     0.70205223943628 0.45217811965129 0.50000843009656 
C26   C     0.29827482975530 0.04785347992086 0.00021452014063 
C27   C     0.74796432065633 0.39818704029705 0.57969312002437 
C28   C     0.29282355032943 0.10185109022296 0.92051274012136 
C29   C     0.90165216988321 0.44826575993511 0.65647949003092 
C30   C     0.19259945961921 0.05175692025560 0.84364094974225 
C31   C     0.00571889029438 0.60874594036667 0.57562359967771 
C32   C     0.13724973033854 0.89119354998141 0.92436760000140 
C33   C     0.04043080065143 0.55305199030525 0.65516855990367 
C34   C     0.12414188020977 0.94688357014242 0.84481514024863 
C35   C     0.22028622102792 0.60054482037677 0.73392777015432 
C36   C     0.05104621993706 0.89925282976852 0.76592711998993 
C37   C     0.37058175953222 0.69786701979691 0.73437827029527 
C38   C     0.00546653919130 0.80179255977996 0.76534746980233 
C39   C     0.35870789083032 0.75181151036194 0.65398124017273 
C40   C     0.04662396040302 0.74782495995954 0.84571606030555 
C41   C     0.17956201041945 0.70691584010788 0.57380565013859 
C42   C     0.11814014051544 0.79288402987960 0.92602179029144 
C43   C     0.19037082039025 0.75799339021884 0.49502844995858 
C44   C     0.18460274962540 0.74183207974521 0.00473430003304 
C45   C     0.36243836022758 0.84897633017071 0.49504339011839 
C46   C     0.17448348932874 0.65071223970282 0.00454946012797 
C47   C     0.53347188919544 0.89503783967887 0.57442563990567 
C48   C     0.09397727046954 0.60445004025512 0.92505319993683 
C49   C     0.53067236976336 0.84658947021376 0.65251297985339 
C50   C     0.03156626018178 0.65286092020170 0.84702069994460 
C51   C     0.82527262002115 0.75824957975621 0.50498900005958 
C52   C     0.79977702974256 0.74224600000731 0.99514345025852 
H1    H     0.90059903003857 0.88476735989808 0.56696704016622 
H2    H     0.49865330942587 0.61604382986561 0.93313998014851 
H3    H     0.76425160013643 0.96715073983372 0.42627493030567 
H4    H     0.47906248943532 0.53334338992533 0.07386490974841 
H5    H     0.59214887028708 0.87896639011553 0.28554346979052 
H6    H     0.76395727066075 0.62120007017493 0.21462706030315 
H7    H     0.46150571985106 0.73421937016843 0.20522439012469 
H8    H     0.08263453043553 0.76581947992141 0.29499710992276 
H9    H     0.37749743960008 0.55601888987659 0.20610009998028 
H10   H     0.35280741031646 0.94389425036990 0.29418057983027 
H11   H     0.38859698045547 0.40817753020018 0.28131593032023 
H12   H     0.50961339004175 0.09168944995103 0.21901591027647 
H13   H     0.47981673963767 0.31661134988698 0.42185008025574 
H14   H     0.50352427003863 0.18332897978907 0.07854775992294 
H15   H     0.65321892997126 0.31666028972269 0.57815069019910 
H16   H     0.36428600966633 0.18340172983915 0.92210169009832 
H17   H     0.92793118076592 0.40824097005540 0.71866740027281 
H18   H     0.17453893013499 0.09181628987949 0.78146596027043 
H19   H     0.23480575963906 0.55590346035138 0.79383383981209 
H20   H     0.03497443037359 0.94388277009984 0.70601562985865 
H21   H     0.50683988951249 0.73395209965231 0.79473388013176 
H22   H     0.94846948966509 0.76560226020018 0.70488855989042 
H23   H     0.06302471004852 0.72309537035054 0.43292262990726 
H24   H     0.25164415971432 0.77689181966280 0.06689429975504 
H25   H     0.36750312013512 0.88435101998317 0.43304848022597 
H26   H     0.23306659015205 0.61537179993817 0.06648138015017 
H27   H     0.66868721045454 0.96664010965694 0.57374974026421 
H28   H     0.08702411954695 0.53269470977160 0.92559111027965 
H29   H     0.66507718911702 0.87851886962336 0.71444860005359 
H30   H     0.97762677000922 0.62072914994249 0.78498974020127 
H31   H     0.88279234032710 0.72332876981451 0.56709074005862 
H32   H     0.80294905960240 0.77734673993793 0.93305521027094 
