data_stdin
_audit_creation_method 'critic2'
_audit_creation_date 2023-8-11
_chemical_formula_sum 'C26 H16'
_cell_formula_units_Z 2
_cell_length_a         6.9253167148
_cell_length_b        10.9495461655
_cell_length_c        14.2564863381
_cell_angle_alpha        68.4457
_cell_angle_beta        61.0030
_cell_angle_gamma        71.6029
_cell_volume           866.764077
_space_group_crystal_system triclinic
_space_group_IT_number 1
_space_group_name_H-M_alt 'P1'
_space_group_name_Hall 'P 1'
loop_
_symmetry_equiv_pos_site_id
_symmetry_equiv_pos_as_xyz
 1 'x,y,z'
loop_
_atom_site_label
_atom_site_type_symbol
_atom_site_fract_x
_atom_site_fract_y
_atom_site_fract_z
C1    C     0.86670811917649 0.14588837999916 0.16558748020871 
C2    C     0.34440344955483 0.85408838011303 0.83439582970658 
C3    C     0.78703522025725 0.07941894994505 0.12681664979717 
C4    C     0.12099815989977 0.92054502030003 0.87309605995179 
C5    C     0.60231355938746 0.14221645021071 0.10352297037545 
C6    C     0.95252605060801 0.85769045992216 0.89639967002688 
C7    C     0.56109124034068 0.33475108045458 0.16636021977852 
C8    C     0.22899873969939 0.66516401980217 0.83361797038798 
C9    C     0.48847164047762 0.26996969969538 0.12089791006637 
C10   C     0.00095799957472 0.72990173005849 0.87906857018616 
C11   C     0.30857805997367 0.33652568969401 0.08848346981386 
C12   C     0.82286553945680 0.66326309035138 0.91153023983184 
C13   C     0.21720718021080 0.46565815978934 0.09198959009534 
C14   C     0.86751178030265 0.53413001967243 0.90799504003741 
C15   C     0.44411077927036 0.46659371006683 0.18272609005724 
C16   C     0.27642337987051 0.53332863999241 0.81720862964307 
C17   C     0.29017336071191 0.53488346983422 0.13335940981884 
C18   C     0.09218227990889 0.46498930983970 0.86655208019519 
C19   C     0.21589972965018 0.67465362032764 0.11891571986874 
C20   C     0.12868805028559 0.32522767990053 0.88092775983374 
C21   C     0.30405139080053 0.74610413975042 0.14540444962260 
C22   C     0.34105314066233 0.25383223967265 0.85441695015373 
C23   C     0.48978964062746 0.53778834000445 0.23574705973295 
C24   C     0.49905560963369 0.46219484969489 0.76417997009422 
C25   C     0.44484634973971 0.68022141027622 0.20235919003520 
C26   C     0.52969558991018 0.31975736024572 0.79752840014172 
C27   C     0.54227576082047 0.75620300992953 0.22539844985011 
C28   C     0.74893942063933 0.24379070959774 0.77452648019494 
C29   C     0.67827923963623 0.69423855025796 0.27990204039621 
C30   C     0.93185376033305 0.30576267056319 0.72005196967228 
C31   C     0.57743553973124 0.47814302956310 0.31952847989276 
C32   C     0.69440849964963 0.52187225964267 0.68045192986515 
C33   C     0.69203066994561 0.55504186965386 0.33137514008837 
C34   C     0.90939984998771 0.44496337048823 0.66859574975121 
C35   C     0.80749641046886 0.49570062996820 0.40173044998212 
C36   C     0.10608721965987 0.50427192957333 0.59823787988765 
C37   C     0.79030594945225 0.36919382030944 0.46825165029002 
C38   C     0.09542593914826 0.63082788024453 0.53179082040287 
C39   C     0.64532183052875 0.29652074014703 0.47349190973794 
C40   C     0.88833980985441 0.70359419974481 0.52662937961922 
C41   C     0.53467279890696 0.35106210014786 0.40057844040170 
C42   C     0.68661799022282 0.64901688038201 0.59946057008915 
C43   C     0.36999585071242 0.28379634976869 0.41921174961749 
C44   C     0.49202641089193 0.71634112005805 0.58081640971595 
C45   C     0.32384753959056 0.16695093980290 0.50149684033982 
C46   C     0.49344766027267 0.83331139954754 0.49865187024958 
C47   C     0.44216538954811 0.10971426954107 0.56894049020759 
C48   C     0.68918938978981 0.89061239977821 0.43133891036537 
C49   C     0.59914358033507 0.17456327004159 0.55522523018753 
C50   C     0.88352318979271 0.82568142018439 0.44502815965535 
C51   C     0.75703841983970 0.26998780010057 0.18441421025809 
C52   C     0.39625352005694 0.72996209015436 0.81560418996338 
H1    H     0.01727568937397 0.10017286032124 0.18032718035786 
H2    H     0.47871855941297 0.89982147988335 0.81967957032304 
H3    H     0.87255361972241 0.98112082957344 0.11315394026809 
H4    H     0.08105702946602 0.01887492022441 0.88671555032030 
H5    H     0.54306030986444 0.09586017977088 0.06856747985025 
H6    H     0.77722927983058 0.90402888048422 0.93133527985954 
H7    H     0.25335507055328 0.28549443979805 0.05540278991840 
H8    H     0.65064893018468 0.71422819023380 0.94466201985212 
H9    H     0.08859548062979 0.51944920995530 0.06148637968246 
H10   H     0.73176638115622 0.48027353968068 0.93854473964317 
H11   H     0.10032608970732 0.72353350027662 0.07964899984678 
H12   H     0.98358229056156 0.27630958979117 0.92017249998828 
H13   H     0.26515799023863 0.85467711966807 0.12508705998693 
H14   H     0.37005818039483 0.14526217011621 0.87467425961045 
H15   H     0.51076566972398 0.86449893049226 0.19654642983125 
H16   H     0.76795954901578 0.13549286038157 0.80338642017007 
H17   H     0.76339652053641 0.75080733005432 0.29272538996930 
H18   H     0.09901916100351 0.24920129989148 0.70723920962279 
H19   H     0.90529691970197 0.55522539998726 0.40311551038091 
H20   H     0.26607087046782 0.44468919039600 0.59679324005105 
H21   H     0.87527246980676 0.32566402946943 0.52331159028682 
H22   H     0.24686373947068 0.67433517022268 0.47673399008806 
H23   H     0.27276285072983 0.32684561005065 0.37018203963163 
H24   H     0.33995122041398 0.67324535006824 0.62975406001205 
H25   H     0.19325308027650 0.11919448985178 0.51480333974782 
H26   H     0.34175240000416 0.88111699963285 0.48534899038190 
H27   H     0.40752917962267 0.01617037975229 0.63191064006043 
H28   H     0.68683840044784 0.98425881981663 0.36847455031180 
H29   H     0.68718232070378 0.13463176028723 0.60899598961429 
H30   H     0.03900099975697 0.86565297019005 0.39132948030534 
H31   H     0.82648667028068 0.31952236997470 0.21164703965559 
H32   H     0.56949212986775 0.68042825014072 0.78842855000983 
