data_stdin
_audit_creation_method 'critic2'
_audit_creation_date 2023-8-11
_chemical_formula_sum 'C26 H16'
_cell_formula_units_Z 4
_cell_length_a         7.2613011950
_cell_length_b        16.1908315983
_cell_length_c        17.7234092134
_cell_angle_alpha        77.4562
_cell_angle_beta       114.1903
_cell_angle_gamma       116.6182
_cell_volume          1697.816115
_space_group_crystal_system triclinic
_space_group_IT_number 2
_space_group_name_H-M_alt 'P-1'
_space_group_name_Hall '-P 1'
loop_
_symmetry_equiv_pos_site_id
_symmetry_equiv_pos_as_xyz
 1 'x,y,z'
 2 '-x,-y,-z'
loop_
_atom_site_label
_atom_site_type_symbol
_atom_site_fract_x
_atom_site_fract_y
_atom_site_fract_z
C1    C     0.97737129039540 0.79015700991242 0.36753033014163 
C2    C     0.16148303923034 0.70995683980393 0.13219376973999 
C3    C     0.10116427014056 0.81076556005982 0.31694781991907 
C4    C     0.34502449058867 0.68920135009987 0.18280716991855 
C5    C     0.25743330961890 0.77487339993950 0.33914494973351 
C6    C     0.52879237915985 0.72502986968310 0.16072724994147 
C7    C     0.18009599103305 0.70140097030720 0.46623663026504 
C8    C     0.34464247935716 0.79871732008232 0.03365303986490 
C9    C     0.29706736019120 0.71879168996613 0.41222788006843 
C10   C     0.53466914996785 0.78118937981798 0.08770096004220 
C11   C     0.44606781972730 0.67628476969728 0.43029729971335 
C12   C     0.73259025020657 0.82362411993477 0.06972474979349 
C13   C     0.45954417951320 0.61173419992107 0.49365015995171 
C14   C     0.74865309919605 0.88822467970222 0.00641673998180 
C15   C     0.22136349079026 0.64329845994928 0.54096959021735 
C16   C     0.35285612969766 0.85685746993645 0.95896140027719 
C17   C     0.33916210993882 0.59017754024552 0.54695630978139 
C18   C     0.56491671026419 0.90989029999863 0.95305198010996 
C19   C     0.33423847026880 0.51368019024052 0.60456812969207 
C20   C     0.59780097996453 0.98637859015817 0.89543365987301 
C21   C     0.20751563907635 0.48764622967252 0.65204355988388 
C22   C     0.42829112992218 0.01249741029409 0.84791214994287 
C23   C     0.13646643075317 0.62979634995099 0.60586425020073 
C24   C     0.16530826002642 0.87043299966927 0.89401424990905 
C25   C     0.10635108019483 0.54440519000386 0.65363370969276 
C26   C     0.21043931976078 0.95583264966959 0.84626638992080 
C27   C     0.97514537088328 0.51562740010518 0.70351193009076 
C28   C     0.03701552984036 0.98464491005978 0.79637249975225 
C29   C     0.87696490996088 0.56887429980255 0.70714122029202 
C30   C     0.82512814020415 0.93142430966388 0.79269364011812 
C31   C     0.08057337076603 0.69482439005160 0.62743288019808 
C32   C     0.93633924956362 0.80543203013935 0.87236553970195 
C33   C     0.93239854032094 0.66032379031300 0.67121423028089 
C34   C     0.76955834947153 0.83994539986587 0.82857535028351 
C35   C     0.84645187919605 0.71843281990657 0.68317684992726 
C36   C     0.54356523895135 0.78181432979503 0.81658259978584 
C37   C     0.91587220045354 0.80965591997996 0.65850009019873 
C38   C     0.48008581958314 0.69056868983203 0.84120375989276 
C39   C     0.09096317974740 0.85079104012575 0.62693686985564 
C40   C     0.63613792030964 0.64943787021410 0.87273997001052 
C41   C     0.18126761014093 0.79447647023050 0.61449137007035 
C42   C     0.86386476047662 0.70578103994098 0.88525151014298 
C43   C     0.37796346001836 0.84034914994267 0.59676813006766 
C44   C     0.00450791931139 0.65997047003221 0.90299090978188 
C45   C     0.47192514956899 0.93546754003173 0.58643753010811 
C46   C     0.92919844953483 0.56485582008991 0.91331494008407 
C47   C     0.37129539029863 0.98990718992085 0.59164240020120 
C48   C     0.70933407997547 0.51037448979057 0.90801051996468 
C49   C     0.18502292895401 0.94783576985003 0.61254159977301 
C50   C     0.56516933038726 0.55238577991805 0.88706312027048 
C51   C     0.01654331054190 0.73706217994918 0.44013095012717 
C52   C     0.16188213056554 0.76313447989198 0.05965297010166 
H1    H     0.84919238039784 0.81591264999422 0.34947207022755 
H2    H     0.01787653996994 0.68424317983194 0.15019128995780 
H3    H     0.07324351009024 0.85370323978267 0.26044539999226 
H4    H     0.34399848972654 0.64618322017668 0.23925339020801 
H5    H     0.35064662993813 0.78810410972999 0.29963066976380 
H6    H     0.67438910008797 0.71166901971476 0.20029569979376 
H7    H     0.53950137995478 0.69291425016963 0.39018514990130 
H8    H     0.87286488991716 0.80689869989712 0.10986468984455 
H9    H     0.56454221927498 0.57547712974375 0.50573285991164 
H10   H     0.90204593067557 0.92443119988128 0.99441354028827 
H11   H     0.42363798902710 0.47377702976693 0.60681259969924 
H12   H     0.76249667022824 0.02619551986941 0.89322235006514 
H13   H     0.18507120001184 0.42410103989638 0.69056731978210 
H14   H     0.45593991038516 0.07603755990052 0.80937991023799 
H15   H     0.95189197086296 0.44912894004393 0.73722611020734 
H16   H     0.07931340973302 0.05116029034960 0.76268906976780 
H17   H     0.76791863996665 0.54541337991076 0.74207479005717 
H18   H     0.69314488006641 0.95492302984452 0.75774714011632 
H19   H     0.72474640088915 0.68802105022380 0.71309673026517 
H20   H     0.42276063932824 0.81222281985648 0.78669550970963 
H21   H     0.84967917946269 0.85356152981329 0.66779056001028 
H22   H     0.30758059932640 0.64666212967101 0.83190584027152 
H23   H     0.45988917963371 0.80006591022770 0.59325341991943 
H24   H     0.17394647017616 0.70030827003944 0.90652315975349 
H25   H     0.62537903941142 0.96883952977493 0.57435138974112 
H26   H     0.04025058021930 0.53151895995567 0.92544189000955 
H27   H     0.44400556999162 0.06457763020426 0.58150227988869 
H28   H     0.65318508958739 0.43570112003159 0.91809364024442 
H29   H     0.10942880917137 0.98892554971790 0.62015779972631 
H30   H     0.39221435047743 0.51122083006072 0.87935576005674 
H31   H     0.91731160930346 0.72151783977345 0.47750735018208 
H32   H     0.01914507001948 0.77879983977307 0.02224030022243 
