data_stdin
_audit_creation_method 'critic2'
_audit_creation_date 2023-8-11
_chemical_formula_sum 'C26 H16'
_cell_formula_units_Z 4
_cell_length_a         7.0783545108
_cell_length_b        13.8998335147
_cell_length_c        23.0964952906
_cell_angle_alpha       104.6554
_cell_angle_beta       119.8397
_cell_angle_gamma        59.4034
_cell_volume          1696.702988
_space_group_crystal_system triclinic
_space_group_IT_number 2
_space_group_name_H-M_alt 'P-1'
_space_group_name_Hall '-P 1'
loop_
_symmetry_equiv_pos_site_id
_symmetry_equiv_pos_as_xyz
 1 'x,y,z'
 2 '-x,-y,-z'
loop_
_atom_site_label
_atom_site_type_symbol
_atom_site_fract_x
_atom_site_fract_y
_atom_site_fract_z
C1    C     0.49650144019915 0.79574322014856 0.56895581990288 
C2    C     0.08733579953643 0.70418006979482 0.06887746000165 
C3    C     0.23881716894730 0.85045557021140 0.54001641982746 
C4    C     0.93894973942583 0.64953099015080 0.03998249985800 
C5    C     0.12260308966641 0.85481779974150 0.57479700992699 
C6    C     0.83145646019926 0.64523546976345 0.07478596988099 
C7    C     0.51929609011085 0.74259154001377 0.66634912977151 
C8    C     0.00400811084711 0.75739927977939 0.16627197007534 
C9    C     0.25721083088123 0.80304571985393 0.63800668006796 
C10   C     0.86266755970268 0.69701363974574 0.13796983979142 
C11   C     0.13268001926265 0.81602487035455 0.67477290979490 
C12   C     0.76400945997447 0.68410879994199 0.17474407022496 
C13   C     0.26294361051365 0.77941008966204 0.73909039981463 
C14   C     0.82114321991143 0.72071011985702 0.23904240976397 
C15   C     0.65608833008515 0.69181696038095 0.73201094021706 
C16   C     0.03943624991561 0.80814932035674 0.23192085011332 
C17   C     0.52429359985444 0.72236387017125 0.76976440996488 
C18   C     0.96862768889572 0.77765317024194 0.26968761981251 
C19   C     0.65063995980319 0.70321351959455 0.83981431992872 
C20   C     0.05673659070040 0.79676515020250 0.33973037020878 
C21   C     0.89898422940614 0.66330821028935 0.87209666014255 
C22   C     0.22536322954450 0.83661598036252 0.37200152019180 
C23   C     0.91948960035773 0.62244372998862 0.76421074983164 
C24   C     0.16430264938383 0.87745138025307 0.26410231988266 
C25   C     0.03806168941079 0.62345039978261 0.83564910984808 
C26   C     0.28482439932365 0.87644879005068 0.33554417986739 
C27   C     0.29605513996565 0.58363984026952 0.87083443980849 
C28   C     0.46319753087025 0.91626556967838 0.37073464997584 
C29   C     0.43516844935851 0.54194522018533 0.83708213012496 
C30   C     0.51906355962069 0.95794070037740 0.33698891021940 
C31   C     0.07450154937673 0.55271471002077 0.73119427991266 
C32   C     0.18007158992097 0.94714245040686 0.23107139981583 
C33   C     0.32873258000977 0.52316066039068 0.76714033992405 
C34   C     0.37523764027668 0.97667343991519 0.26702958018115 
C35   C     0.48247287996856 0.46964232993352 0.73405159994233 
C36   C     0.42218604952312 0.03011697983338 0.23393363002937 
C37   C     0.39552908006991 0.43647527040642 0.66918553003676 
C38   C     0.26905649944169 0.06325916967644 0.16904038976780 
C39   C     0.15452206112242 0.44613566975527 0.63484386013043 
C40   C     0.04726029002508 0.05369895029362 0.13469103016132 
C41   C     0.99416223050178 0.50130281962164 0.66615494984345 
C42   C     0.99702955950642 0.99858534024722 0.16600778012583 
C43   C     0.77133075056290 0.49425792974858 0.63414197993230 
C44   C     0.76001369953147 0.00573924024197 0.13398082988260 
C45   C     0.70568541993353 0.44043309982331 0.57359261983189 
C46   C     0.58678037943613 0.05966135020683 0.07342509980902 
C47   C     0.85663619912044 0.39299604009507 0.54080194994911 
C48   C     0.64304102096033 0.10705088962669 0.04063590014980 
C49   C     0.07830868938945 0.39561933041242 0.57147589994633 
C50   C     0.87008960047766 0.10428888961449 0.07131096991232 
C51   C     0.63215383035965 0.74400654041040 0.63047270015813 
C52   C     0.11966408044525 0.75592338018675 0.13036813020078 
H1    H     0.59207937006293 0.79498934988870 0.54351270024559 
H2    H     0.18142067971288 0.70486663000725 0.04341761994815 
H3    H     0.13176202046899 0.89067294979864 0.49142734000726 
H4    H     0.91220471947362 0.60932631996558 0.99140980006934 
H5    H     0.92367794866185 0.90014999036236 0.55462441981023 
H6    H     0.72305075968324 0.59997088010724 0.05465800999447 
H7    H     0.93351334023726 0.86106947969367 0.65213831010630 
H8    H     0.65478079952552 0.63913147040308 0.15212885995773 
H9    H     0.17006281952894 0.79516887969155 0.76898705988040 
H10   H     0.75968387968966 0.70502628012850 0.26895042002447 
H11   H     0.54393342962937 0.72934151003178 0.86722281008572 
H12   H     0.00219301016065 0.77066100992670 0.36713903002952 
H13   H     0.99586510997143 0.65970015033231 0.92637915010273 
H14   H     0.31504964949623 0.84020565019514 0.42628272004974 
H15   H     0.37908334911669 0.58982112017024 0.92514655981335 
H16   H     0.55844081949454 0.91012231001211 0.42505269011817 
H17   H     0.63098057072076 0.51591366960306 0.86318837015657 
H18   H     0.66278777953128 0.98399414038823 0.36310009997050 
H19   H     0.67212401939768 0.45493168979116 0.76221392986268 
H20   H     0.58248341041714 0.04477975025210 0.26210764014631 
H21   H     0.51386428963953 0.39512455009617 0.64435495008036 
H22   H     0.30487637018112 0.10453761980141 0.14419633978298 
H23   H     0.65231325966989 0.52924268983472 0.65848811992473 
H24   H     0.71084214125182 0.97076881973677 0.15831745020424 
H25   H     0.53510146040618 0.43474933008679 0.55071572015751 
H26   H     0.40474642032072 0.06543937027132 0.05053568009172 
H27   H     0.80041032020846 0.35283279993895 0.49251263980915 
H28   H     0.50652647905775 0.14729006023585 0.99234264976293 
H29   H     0.20173060978036 0.35657590019931 0.54807218997631 
H30   H     0.91555599019842 0.14329498041538 0.04790243019805 
H31   H     0.83030026934031 0.70562596993547 0.65218383987269 
H32   H     0.24114343040776 0.79425151015305 0.15203497022594 
