data_stdin
_audit_creation_method 'critic2'
_audit_creation_date 2023-8-11
_chemical_formula_sum 'C26 H16'
_cell_formula_units_Z 4
_cell_length_a         6.8302193058
_cell_length_b        15.1091723693
_cell_length_c        19.5996893679
_cell_angle_alpha        99.0653
_cell_angle_beta        69.5829
_cell_angle_gamma       116.8540
_cell_volume          1691.179034
_space_group_crystal_system triclinic
_space_group_IT_number 1
_space_group_name_H-M_alt 'P1'
_space_group_name_Hall 'P 1'
loop_
_symmetry_equiv_pos_site_id
_symmetry_equiv_pos_as_xyz
 1 'x,y,z'
loop_
_atom_site_label
_atom_site_type_symbol
_atom_site_fract_x
_atom_site_fract_y
_atom_site_fract_z
C1    C     0.61375122398948 0.30818869453466 0.57376793199001 
C2    C     0.14536295576609 0.19194078595955 0.42621508377921 
C3    C     0.00209683591141 0.80813413877164 0.92627372786119 
C4    C     0.23889039513011 0.69184507420765 0.07374156542978 
C5    C     0.53262912822505 0.34864349865289 0.53552317668528 
C6    C     0.90687374821258 0.15150817661024 0.46452912601527 
C7    C     0.16395546006245 0.84857073570813 0.96455839319711 
C8    C     0.39652343297845 0.65136823891902 0.03547170610151 
C9    C     0.32808973807347 0.35747066317095 0.57005246288166 
C10   C     0.75363962660714 0.14262807155612 0.43006145153542 
C11   C     0.38618393055176 0.85744454410189 0.93006274644097 
C12   C     0.53194575046114 0.64250695207646 0.06997647215153 
C13   C     0.26794535600152 0.27571878515131 0.67956145038095 
C14   C     0.07582331193407 0.22430459383404 0.32047570713042 
C15   C     0.28323276133084 0.77576604900071 0.82049842714642 
C16   C     0.37295215323890 0.72423858213870 0.17951913890541 
C17   C     0.19637404066819 0.32456796421117 0.64257702060344 
C18   C     0.83263395001594 0.17546814139993 0.35753166328800 
C19   C     0.45230338285651 0.82459719631563 0.85752916829299 
C20   C     0.51854089962956 0.67538575913750 0.14249959752999 
C21   C     0.00131834568784 0.34531314261033 0.68029919394122 
C22   C     0.67144500771709 0.15467659105821 0.31987790951672 
C23   C     0.68885628150039 0.84537356481250 0.81985134291308 
C24   C     0.63810889993878 0.65460243263891 0.18018606617260 
C25   C     0.89050801250328 0.32388841511565 0.75262677945787 
C26   C     0.74801152923484 0.17606019477543 0.24754950606799 
C27   C     0.75701243489204 0.82399034220068 0.74751949808669 
C28   C     0.60417599223324 0.67599124717493 0.25251564654918 
C29   C     0.12738997855860 0.23910079729938 0.75307003064377 
C30   C     0.15535303811310 0.26088846721808 0.24697098212289 
C31   C     0.35077747816116 0.73920162461226 0.74698145854719 
C32   C     0.36638755581995 0.76080602596460 0.25303635873665 
C33   C     0.95573322649981 0.27394440934616 0.79077064042753 
C34   C     0.98935806622492 0.22601746281966 0.20933992969865 
C35   C     0.59210312835925 0.77406556136573 0.70932841467576 
C36   C     0.46261139540765 0.72593262641430 0.29069697566622 
C37   C     0.85831138779159 0.26562400478989 0.86786032876621 
C38   C     0.06266275994128 0.23433337957155 0.13225216750268 
C39   C     0.67306781760708 0.76577579785136 0.63223988176197 
C40   C     0.40579635733969 0.73422042245591 0.36778756799632 
C41   C     0.93960716913544 0.22981587461380 0.90653531812065 
C42   C     0.29290669263811 0.27015952577948 0.09351544372354 
C43   C     0.52033637744616 0.72999328655327 0.59352115596201 
C44   C     0.24710665922479 0.77003210581011 0.40650269161003 
C45   C     0.16314435200193 0.17689760804067 0.79250601615847 
C46   C     0.39430270831368 0.32310723611345 0.20747914891444 
C47   C     0.19084232518879 0.67702037516913 0.70749748827839 
C48   C     0.25168862108314 0.82299732834111 0.29251566460228 
C49   C     0.09264853197574 0.18500394045989 0.87019886242039 
C50   C     0.46293140820132 0.31499260493396 0.12978680143558 
C51   C     0.27770925083267 0.68518226432737 0.62980864449716 
C52   C     0.16674854471956 0.81486732974495 0.37020657492535 
C53   C     0.17272121851773 0.14730352920402 0.91174498923173 
C54   C     0.70147105449480 0.35270926382218 0.08818410611778 
C55   C     0.12242727598246 0.64752160471437 0.58821926030634 
C56   C     0.00355103315673 0.85257050697969 0.41179500591620 
C57   C     0.31432879273347 0.10133519069440 0.87843781376250 
C58   C     0.86841355923077 0.39869934143845 0.12142947093369 
C59   C     0.88893482233857 0.60150266198176 0.62147143714798 
C60   C     0.92850661363164 0.89853431210300 0.37853188466950 
C61   C     0.26399453768515 0.10764983459289 0.76065976681446 
C62   C     0.56991347485856 0.39237376162082 0.23926814005458 
C63   C     0.95160360887990 0.60772644914897 0.73928267676715 
C64   C     0.21451762138158 0.89225914594209 0.26071525905059 
C65   C     0.35824735522323 0.07870405900665 0.80290403225788 
C66   C     0.80654998463911 0.42133877759666 0.19696265965505 
C67   C     0.79962970737351 0.57878192561996 0.69699268864066 
C68   C     0.03568012593609 0.92118357089991 0.30300024837172 
C69   C     0.49144317107074 0.02361672249644 0.77077379058422 
C70   C     0.98565864261363 0.47644700811107 0.22903127502243 
C71   C     0.55634511467030 0.52359582439188 0.72905519680701 
C72   C     0.96674960815836 0.97629268089213 0.27091443979983 
C73   C     0.51684921757301 0.99057055989602 0.70077895241647 
C74   C     0.93714519485520 0.50947842855899 0.29903572206598 
C75   C     0.46477028205040 0.49048977518414 0.79903760700856 
C76   C     0.08141347386599 0.00937949368353 0.20092746503193 
C77   C     0.39554825906711 0.00416263955809 0.66006112486876 
C78   C     0.70718171307986 0.49585189708674 0.33982257475263 
C79   C     0.61313023835365 0.50412048387573 0.83980491131536 
C80   C     0.28422999460651 0.99580407383857 0.16017071844533 
C81   C     0.26123420873923 0.05955860051805 0.69045447051857 
C82   C     0.52288811596092 0.44046445657084 0.30948109051388 
C83   C     0.85815162729374 0.55957333953615 0.80946666451130 
C84   C     0.35776274697661 0.94039708075021 0.19052382336612 
C85   C     0.12047171068995 0.05927421519545 0.65169367506974 
C86   C     0.30511354466431 0.44074942048260 0.34830079013324 
C87   C     0.99828203121423 0.55927837687414 0.84825181313049 
C88   C     0.57614164849359 0.94071017744376 0.15173683702118 
C89   C     0.12628748927767 0.01461657130270 0.58424222008641 
C90   C     0.26529190754689 0.48538281047449 0.41576635182751 
C91   C     0.90312215300346 0.51458569255111 0.91569153857252 
C92   C     0.70529061656073 0.98539381758149 0.08429370256369 
C93   C     0.27227452622482 0.96667784516617 0.55230446228437 
C94   C     0.44324535755548 0.53328258424457 0.44766109434074 
C95   C     0.66132218389478 0.46662716314236 0.94758948464072 
C96   C     0.62315927263078 0.03332216893685 0.05238384995823 
C97   C     0.40065839365277 0.95989443241796 0.59056073154119 
C98   C     0.66176180798485 0.54008437832130 0.40934530558129 
C99   C     0.51945333387653 0.45982248439484 0.90929970252923 
C100  C     0.41818075344337 0.04009316750705 0.09067049594355 
C101  C     0.48365849841862 0.27221354855472 0.64370947207739 
C102  C     0.22696237679317 0.22784737552967 0.35626246130665 
C103  C     0.06045064944614 0.77221784404988 0.85631904543533 
C104  C     0.22900746828001 0.72778628526810 0.14369007728561 
H1    H     0.77892921518068 0.30425584618495 0.54786796399750 
H2    H     0.26669605553921 0.19591221555015 0.45206542767220 
H3    H     0.82902709849374 0.80417484459818 0.95215485993007 
H4    H     0.12555717441790 0.69582244050742 0.04786787153261 
H5    H     0.63131096056037 0.37419284336966 0.47961264474038 
H6    H     0.84273721632799 0.12601050236532 0.52044714729599 
H7    H     0.11618207652874 0.87406893376829 0.02047852501227 
H8    H     0.40974167610332 0.62582581897530 0.97956108895841 
H9    H     0.26702691874522 0.39155315423264 0.54198006480780 
H10   H     0.56829875484290 0.10854759634964 0.45819282326367 
H11   H     0.51526276615120 0.89152895598213 0.95817043276646 
H12   H     0.64917477383977 0.60841138886620 0.04188155141172 
H13   H     0.95074661469122 0.38359842705224 0.65167067815410 
H14   H     0.48709056791160 0.11639899849846 0.34856752641411 
H15   H     0.81583435205642 0.88363546544026 0.84851927635272 
H16   H     0.74596851982223 0.61631452966972 0.15151943457233 
H17   H     0.75187297996960 0.34570992833852 0.78300661819084 
H18   H     0.62643624218759 0.15420575483580 0.21722418691007 
H19   H     0.93928103934893 0.84582054961202 0.71717138270874 
H20   H     0.68202471966362 0.65413540414919 0.28285822614802 
H21   H     0.73027951716278 0.29454525717851 0.89483977273695 
H22   H     0.93072969421712 0.20540351933631 0.10532118781001 
H23   H     0.85891137758499 0.79469575733899 0.60529280183374 
H24   H     0.47985483210733 0.70527600267727 0.39473115325150 
H25   H     0.88340881204508 0.23198378728019 0.96585752227710 
H26   H     0.35101798096095 0.26799947845032 0.03419185172245 
H27   H     0.58093815224788 0.73216135096933 0.53419869855449 
H28   H     0.18459456232977 0.76786075072796 0.46582464091858 
H29   H     0.12175903381514 0.15742748148060 0.97055999099497 
H30   H     0.74789202736346 0.34258492632115 0.02937051205518 
H31   H     0.19375270650082 0.65770782026349 0.52941061715259 
H32   H     0.93688798565726 0.84246880122660 0.47061063746404 
H33   H     0.38510588846145 0.07618479303550 0.90929520168936 
H34   H     0.05119570822868 0.42385699315370 0.09051705643725 
H35   H     0.76800851720171 0.57638030834934 0.59057515312311 
H36   H     0.79596603201498 0.92368182094940 0.40942498798462 
H37   H     0.57114704034867 0.00785302644732 0.80383912730803 
H38   H     0.16301606433632 0.49222108364853 0.19589658696522 
H39   H     0.44528217550645 0.50781170946838 0.69593527293861 
H40   H     0.82084747485095 0.99203927469966 0.30401844689482 
H41   H     0.61944516451954 0.94897685295647 0.67648959047917 
H42   H     0.07435982118280 0.55108282418819 0.32327096216898 
H43   H     0.27905247167507 0.44882256248983 0.82327330431468 
H44   H     0.02737903558536 0.05099265242605 0.17668524346095 
H45   H     0.00292514767114 0.09384618839989 0.67574487741170 
H46   H     0.16653376818875 0.40619851718110 0.32429154706390 
H47   H     0.18492795423443 0.59386683731648 0.82422812480175 
H48   H     0.64561085946516 0.90613871684226 0.17575426830826 
H49   H     0.01653146196264 0.01631103822076 0.55576826934007 
H50   H     0.09518180536902 0.48370943707582 0.44429767872521 
H51   H     0.01618657519367 0.51626333294677 0.94419212132443 
H52   H     0.87207846370810 0.98373095764473 0.05579345825070 
H53   H     0.28182011593871 0.93427454094961 0.49828100220619 
H54   H     0.40944851479841 0.56564528756117 0.50170067241137 
H55   H     0.58695988419370 0.43422000049437 0.00161213452505 
H56   H     0.72172472251722 0.06572370969071 0.99835995290389 
H57   H     0.50591414543240 0.91888910512453 0.56843723140240 
H58   H     0.80474936853497 0.58107360298261 0.43143377497621 
H59   H     0.33225454601870 0.41877852174615 0.93138760899846 
H60   H     0.35713047622594 0.08109320681001 0.06858130229799 
H61   H     0.55105091115189 0.24205262155848 0.67210975469429 
H62   H     0.41145402138643 0.25798997959633 0.32779957749712 
H63   H     0.93287004056287 0.74206744371796 0.82788594450609 
H64   H     0.10477846990278 0.75795340920761 0.17211863597820 
