data_stdin
_audit_creation_method 'critic2'
_audit_creation_date 2023-8-11
_chemical_formula_sum 'C26 H16'
_cell_formula_units_Z 8
_cell_length_a         7.2224340920
_cell_length_b        14.8565217075
_cell_length_c        38.2097871777
_cell_angle_alpha        79.4172
_cell_angle_beta        67.8147
_cell_angle_gamma        60.9096
_cell_volume          3317.493162
_space_group_crystal_system triclinic
_space_group_IT_number 1
_space_group_name_H-M_alt 'P 1'
_space_group_name_Hall 'P 1'
loop_
_symmetry_equiv_pos_site_id
_symmetry_equiv_pos_as_xyz
 1 'x,y,z'
loop_
_atom_site_label
_atom_site_type_symbol
_atom_site_fract_x
_atom_site_fract_y
_atom_site_fract_z
H1    H     0.91495027419673 0.49489371850200 0.34845619518360 
H2    H     0.26397061508198 0.51334414300251 0.41141472559709 
H3    H     0.70942540842800 0.01333077432924 0.08856022274198 
H4    H     0.09531465809323 0.99494465285761 0.15154181720594 
H5    H     0.76750783229841 0.37086043942668 0.35290625930679 
H6    H     0.87004438010869 0.63266113563804 0.41351702888388 
H7    H     0.86471384078471 0.13265805185555 0.08646411818009 
H8    H     0.49085245564995 0.87091370235191 0.14708395323475 
H9    H     0.43141802595589 0.42742703855057 0.33480322170417 
H10   H     0.59660489133713 0.56447044820859 0.42891415809761 
H11   H     0.27453136338039 0.06446327823464 0.07106688130774 
H12   H     0.71381718539288 0.92746234840414 0.16519430655422 
H13   H     0.14285993621891 0.55638990983536 0.30980785785081 
H14   H     0.50378772954156 0.42181108540981 0.44543305819703 
H15   H     0.65271737866116 0.92177069910903 0.05456089251595 
H16   H     0.74445649646535 0.05640682583175 0.19018002055944 
H17   H     0.99398533172935 0.72374087306455 0.27775949798181 
H18   H     0.59379846326789 0.24614760445175 0.47304436110531 
H19   H     0.91398455115309 0.74609725934818 0.02696328109776 
H20   H     0.55865568199715 0.22373588768088 0.22223277064995 
H21   H     0.01721516631770 0.88116693582064 0.25120518810825 
H22   H     0.84757144596378 0.09195229539666 0.49803086541110 
H23   H     0.96853704948014 0.59197137878038 0.00195898307203 
H24   H     0.22051396330821 0.38116474299604 0.24879712247197 
H25   H     0.18523739919330 0.99915499736118 0.24151880167597 
H26   H     0.22581257487299 0.98106129913425 0.50339897179787 
H27   H     0.81204312514334 0.48112583880364 0.99658429231768 
H28   H     0.81646768477139 0.49913759830883 0.25848768147241 
H29   H     0.41763926241690 0.05095990919412 0.25645625671158 
H30   H     0.61839578827873 0.94239452445090 0.48665622338659 
H31   H     0.49685506327314 0.44243512754640 0.01334077665983 
H32   H     0.48044608730641 0.55095380575593 0.24355106521343 
H33   H     0.64018884397286 0.03413256157050 0.29571131097395 
H34   H     0.94496900051966 0.97101060988802 0.44490398041710 
H35   H     0.11307142874792 0.47101161608623 0.05509923783329 
H36   H     0.29154350911299 0.53414911598892 0.20429722560152 
H37   H     0.75576829857062 0.96533268344235 0.35029841113700 
H38   H     0.11470295653662 0.04699025951259 0.38985334177467 
H39   H     0.79132555526717 0.54700994751234 0.11015125803007 
H40   H     0.31347745990209 0.46536993119949 0.14973210114640 
H41   H     0.70395479370439 0.87776396391418 0.41228130390214 
H42   H     0.10561568069013 0.14196266622382 0.32965127595086 
H43   H     0.61048599126044 0.64198053021399 0.17034904080160 
H44   H     0.54031982652495 0.37781410324084 0.08775038489583 
H45   H     0.14561900430221 0.77898116807810 0.37619680541766 
H46   H     0.21079750115554 0.22317702977535 0.37389251943415 
H47   H     0.34287579892201 0.72318888598360 0.12609742785650 
H48   H     0.29640474020835 0.27895411395916 0.12380244723144 
H49   H     0.04092729001423 0.72381004787856 0.44218287548515 
H50   H     0.22897336501195 0.28926446465840 0.30985861489670 
H51   H     0.19249407531879 0.78931513308977 0.19012338839304 
H52   H     0.51132058001484 0.22383326890615 0.05781468072461 
H53   H     0.21673388344070 0.73226042713916 0.48559443812617 
H54   H     0.57973680098951 0.29660868117337 0.26455795407333 
H55   H     0.82707723623849 0.79662421535038 0.23542958759340 
H56   H     0.31850649915455 0.23232368420023 0.01441408975055 
H57   H     0.49333853645901 0.80249522526441 0.46188289602241 
H58   H     0.91570826578870 0.22531941832900 0.28365874810234 
H59   H     0.63372354024457 0.72530680561590 0.21633700995509 
H60   H     0.90142488277351 0.30255398316301 0.03814164525119 
H61   H     0.72023896104275 0.67405145327872 0.32940839495366 
H62   H     0.38682848109515 0.32760130847263 0.42189845838247 
H63   H     0.95802414924558 0.82761283452651 0.07808934598368 
H64   H     0.93165622458620 0.17407751005745 0.17062139070120 
C1    C     0.76415270432303 0.52018927319341 0.34146726595839 
C2    C     0.14486707180170 0.48302092707403 0.41749223302136 
C3    C     0.88916653758545 0.98302384635262 0.08249204474929 
C4    C     0.19551952678277 0.02022739220877 0.15853473115113 
C5    C     0.68206625305747 0.44982995145089 0.34384828837587 
C6    C     0.92234750837155 0.55077812292653 0.41888416298029 
C7    C     0.97617031243934 0.05077405257910 0.08109830054934 
C8    C     0.41836135584830 0.94987297079109 0.15614696884274 
C9    C     0.49377513901807 0.48148047346774 0.33408659533935 
C10   C     0.77018290810317 0.51260132057878 0.42713020779798 
C11   C     0.20469740800645 0.01259220284759 0.07285649924495 
C12   C     0.54333878705833 0.98151454206421 0.16591247785782 
C13   C     0.45680524834874 0.65713103426538 0.32152483377937 
C14   C     0.06280239484947 0.33656838509785 0.43163513506778 
C15   C     0.26413144276091 0.83656528220169 0.06835732071083 
C16   C     0.22896505303210 0.15714508528575 0.17848771946572 
C17   C     0.38135004511274 0.58367974346775 0.32211233299599 
C18   C     0.83508839353416 0.40646675712027 0.43427677753450 
C19   C     0.35205425740211 0.90645632743162 0.06571486147742 
C20   C     0.45135187029161 0.08370280665707 0.17789213431209 
C21   C     0.20122375923305 0.61250867635601 0.30844311258377 
C22   C     0.67179398636460 0.36928491855789 0.44630140228047 
C23   C     0.58971816517394 0.86926608478284 0.05369621940774 
C24   C     0.57383358080148 0.11253109762197 0.19155526590487 
C25   C     0.11832420231431 0.70514407023216 0.29092892402582 
C26   C     0.72182852866141 0.27269080747036 0.46114496842648 
C27   C     0.73285853883687 0.77267207266758 0.03885786275919 
C28   C     0.47146468150353 0.20515541933394 0.20907031525898 
C29   C     0.34081029887720 0.76147041209278 0.30873241691387 
C30   C     0.12316362045999 0.22886672035251 0.44116547716043 
C31   C     0.41914951342343 0.72886522840608 0.05883296757821 
C32   C     0.13627519944975 0.26147677911451 0.19128043178119 
C33   C     0.19402331001327 0.77930638927601 0.28892302979927 
C34   C     0.94453595776015 0.20307490656393 0.46127787986198 
C35   C     0.64936614931555 0.70307153869326 0.03872250495539 
C36   C     0.24740205830874 0.27930911549703 0.21108612357647 
C37   C     0.12882961463334 0.86917240414449 0.26625454324218 
C38   C     0.98677187363919 0.10979406823183 0.48229131256993 
C39   C     0.79366122715352 0.60981122273257 0.01770396904641 
C40   C     0.13286934662739 0.36917027953149 0.23375290860449 
C41   C     0.21664442868804 0.93577422463201 0.26161926814076 
C42   C     0.19646804937201 0.04774255181574 0.48482245857784 
C43   C     0.70804374583428 0.54777829135361 0.01517038769636 
C44   C     0.91183752514090 0.43576189693591 0.23838875442190 
C45   C     0.38013666960643 0.84569810269305 0.31185911790275 
C46   C     0.35122991050505 0.14906299459418 0.43535326845726 
C47   C     0.35068268978274 0.64906821941671 0.06464646124900 
C48   C     0.92847184094845 0.34570121540464 0.18815174827571 
C49   C     0.34513345360491 0.92516883083033 0.28400754975990 
C50   C     0.38256508142954 0.06606881133457 0.46189814332669 
C51   C     0.48531844345171 0.56608866595669 0.03809971791901 
C52   C     0.80454948396706 0.42516023124035 0.21600169282296 
C53   C     0.43901690856227 0.99355182357575 0.27878252989709 
C54   C     0.59974724891851 0.00201003502530 0.46501080333124 
C55   C     0.39624992216548 0.50203430114233 0.03498970759934 
C56   C     0.57389704846913 0.49354811730177 0.22122750754315 
C57   C     0.55883432232511 0.98529835171737 0.30071873517857 
C58   C     0.78043350673716 0.01666663986833 0.44166853035642 
C59   C     0.18626859732223 0.51667483534153 0.05833548731555 
C60   C     0.47056812134139 0.48530926857700 0.19929269351069 
C61   C     0.44933057315804 0.85711543438457 0.34105553675261 
C62   C     0.54934610168441 0.14548962843685 0.40490494716410 
C63   C     0.15972688576694 0.64548313852583 0.09509539392585 
C64   C     0.83641681446404 0.35712390320685 0.15895745811679 
C65   C     0.55904382996421 0.92002454121191 0.33308083366635 
C66   C     0.76126397525067 0.08505257668724 0.41033580325056 
C67   C     0.06868116418224 0.58504982406583 0.08966783914461 
C68   C     0.60087636758942 0.42004057319561 0.16693448173821 
C69   C     0.65863336378285 0.92260478454715 0.35860459084021 
C70   C     0.95879182339941 0.08853457903372 0.38343391915527 
C71   C     0.86417832562514 0.58853632028556 0.11656948595098 
C72   C     0.49607267900827 0.42263364489371 0.14141833048648 
C73   C     0.62882557711772 0.87477299401177 0.39288874143926 
C74   C     0.95386840803227 0.14054469912232 0.35017028995263 
C75   C     0.76509182634453 0.64054269240522 0.14983074063410 
C76   C     0.62148565702427 0.37480807707418 0.10713587061754 
C77   C     0.48315202483136 0.82766913084932 0.40507666097088 
C78   C     0.75419375453265 0.18664394950492 0.34044428871679 
C79   C     0.87258442800996 0.68663075243581 0.15955436760408 
C80   C     0.86137484821028 0.32769844439236 0.09494246866405 
C81   C     0.39083147627914 0.81861494898397 0.37942806662583 
C82   C     0.54985839711630 0.18929341764005 0.36754985370644 
C83   C     0.07161373250074 0.68928336235473 0.13244822171104 
C84   C     0.97186054752262 0.31862764028078 0.12058492903079 
C85   C     0.22914532839782 0.78111777710306 0.39420970978722 
C86   C     0.36394849256124 0.22605566322057 0.35496455299312 
C87   C     0.18397930761324 0.72606334741422 0.14502795986350 
C88   C     0.20854214322278 0.28112063503629 0.10579598187153 
C89   C     0.16821013206637 0.75078804231211 0.43154255829136 
C90   C     0.37481277280893 0.26261842896289 0.31857041689898 
C91   C     0.09997461950206 0.76264424094397 0.18141753196303 
C92   C     0.33007922789713 0.25081261515243 0.06846107011943 
C93   C     0.26577048231495 0.75642332628431 0.45628242336407 
C94   C     0.57289832445580 0.26466645362367 0.29277156246700 
C95   C     0.89782138334577 0.76466755631156 0.20721957823200 
C96   C     0.22119383932102 0.25647138196619 0.04372752632645 
C97   C     0.41999896544596 0.79481846537597 0.44304794293116 
C98   C     0.76001647833237 0.22608858021194 0.30357233964132 
C99   C     0.78788047592855 0.72607424842633 0.19642412551233 
C100  C     0.99016778666884 0.29486490744381 0.05697023022938 
C101  C     0.65330702316108 0.62140750351391 0.33089499968246 
C102  C     0.21398142678819 0.37841188795211 0.42323382418899 
C103  C     0.02926656446770 0.87841272700744 0.07675253148668 
C104  C     0.10390732642119 0.12142798438633 0.16911945819148 
H65   H     0.06395441841355 0.51337491609029 0.91152068709772 
H66   H     0.70194088613957 0.49526845289354 0.84851334275650 
H67   H     0.30743359117085 0.99530200573104 0.65151561895836 
H68   H     0.90915384231844 0.01343496737167 0.58846087127926 
H69   H     0.21116511297997 0.63267861678421 0.91351301970769 
H70   H     0.07985281038102 0.37123926554321 0.85289476438803 
H71   H     0.17760931765943 0.87129821435807 0.64710362261298 
H72   H     0.52337490666009 0.13270344727157 0.58645473469070 
H73   H     0.55954100116650 0.56450141226981 0.92888407231678 
H74   H     0.37505658931701 0.42788791221213 0.83476642090841 
H75   H     0.76915721204444 0.92793711666460 0.66520522885086 
H76   H     0.31134985515017 0.06452261491211 0.57109944318630 
H77   H     0.87169192132826 0.42177647581986 0.94545162267412 
H78   H     0.50538387945067 0.55683739288457 0.80976132284355 
H79   H     0.38083431210825 0.05688925587947 0.69022582480065 
H80   H     0.28461715871835 0.92179264087844 0.55456471365499 
H81   H     0.02239304287400 0.24618373323911 0.97312211815975 
H82   H     0.44745736556689 0.72419842124998 0.77769982150739 
H83   H     0.10406544114393 0.22422122200511 0.72229477764446 
H84   H     0.48512093620694 0.74621676466255 0.52688427948697 
H85   H     0.97684450897756 0.09202000213946 0.99816262394589 
H86   H     0.21537343364935 0.88158465662374 0.75118043907127 
H87   H     0.02137834730717 0.38156937584758 0.74883618371942 
H88   H     0.83906817030914 0.59205981990131 0.50183621397258 
H89   H     0.79891855088195 0.98119673145826 0.00349986488394 
H90   H     0.85000822095925 0.99955667017231 0.74148929295970 
H91   H     0.15076971810914 0.49954275881593 0.75851494033685 
H92   H     0.23868491905521 0.48124752539499 0.49649867800897 
H93   H     0.55089929918914 0.94246482019424 0.98664877883308 
H94   H     0.45439193546704 0.05131615482348 0.75641834979367 
H95   H     0.44281095269793 0.55131238764396 0.74358498934133 
H96   H     0.56418389283728 0.44252464553960 0.51334812896554 
H97   H     0.33408305763191 0.97116635826406 0.94485667925719 
H98   H     0.10867192454075 0.03446694619302 0.79566987501836 
H99   H     0.82225283418670 0.53446938750701 0.70434649321008 
H100  H     0.72357492243472 0.47121673735804 0.55513846792646 
H101  H     0.23247826555206 0.04726248588334 0.88978562583802 
H102  H     0.91263322002496 0.96566285666043 0.85023778687005 
H103  H     0.15594267416274 0.46567419490036 0.64977712406168 
H104  H     0.67302808742358 0.54726050617052 0.61020291586169 
H105  H     0.29217704055530 0.14236318118020 0.82961758955428 
H106  H     0.89188146124665 0.87808045316136 0.91221877153079 
H107  H     0.35183176529590 0.37813549203067 0.58779088922499 
H108  H     0.42318833162440 0.64235216207652 0.67036877631311 
H109  H     0.84772475617723 0.22335124479311 0.87397333713741 
H110  H     0.79184502874380 0.77939336628840 0.87619449262332 
H111  H     0.64932365491618 0.27940521245234 0.62380719543558 
H112  H     0.70553627243730 0.72340445199091 0.62603033685230 
H113  H     0.95290519078985 0.28976759470953 0.80998937496149 
H114  H     0.74335860850660 0.72391848107817 0.94215667218788 
H115  H     0.80881352438451 0.22391930550480 0.55785082549098 
H116  H     0.46760850830199 0.78979294159916 0.69001289647125 
H117  H     0.76836268301448 0.29731376810609 0.76466657815090 
H118  H     0.37722571757990 0.73219274652176 0.98552789742225 
H119  H     0.15836757415195 0.23224574552025 0.51447947413627 
H120  H     0.63712246971635 0.79732276997273 0.73532690349785 
H121  H     0.49908874528930 0.22585659839568 0.78367277182711 
H122  H     0.05488023029977 0.80266386355170 0.96182218288661 
H123  H     0.33966260521928 0.30275724710401 0.53818653226155 
H124  H     0.04932076491197 0.72586752145257 0.71631197909494 
H125  H     0.27063689378921 0.32765869625243 0.92204424307485 
H126  H     0.61426321590344 0.67442093570017 0.82946232287971 
H127  H     0.03679234004535 0.17445006165583 0.67055604847674 
H128  H     0.07400467881484 0.82768478014500 0.57793225223714 
C105  C     0.21950677519664 0.48306949533960 0.91757186821907 
C106  C     0.83007294749782 0.52057106363336 0.84149728026897 
C107  C     0.12869634942579 0.02061171849812 0.65851914650582 
C108  C     0.81426145802090 0.98309871370557 0.58241350201729 
C109  C     0.30112439143931 0.55080169182274 0.91890400193783 
C110  C     0.04345792863322 0.45022551824598 0.84385167657903 
C111  C     0.05603744737065 0.95027860418067 0.65614943133259 
C112  C     0.59716685045662 0.05082643661601 0.58107425077828 
C113  C     0.49675809544705 0.51262864821790 0.92713599152693 
C114  C     0.20738508087848 0.48191641249857 0.83407218925320 
C115  C     0.82872907487395 0.98196427859989 0.66591506263483 
C116  C     0.47787337124366 0.01264425214539 0.57285363644190 
C117  C     0.53802729089699 0.33662703366424 0.93170580975031 
C118  C     0.94306335522730 0.65755119473698 0.82152579548930 
C119  C     0.74173568650390 0.15758359387731 0.67847765218070 
C120  C     0.78864113232805 0.83665491651820 0.56828819259088 
C121  C     0.61550303855165 0.40650521394739 0.93431245617430 
C122  C     0.16313686637748 0.58412524192320 0.82209878927084 
C123  C     0.66854127772901 0.08416137777423 0.67789446465426 
C124  C     0.57137692687696 0.90652153276646 0.56568714566596 
C125  C     0.80513985095510 0.36929737469538 0.94633731297790 
C126  C     0.34019997699193 0.61296423628601 0.80840776851951 
C127  C     0.43380078033107 0.11299526712285 0.69158214657363 
C128  C     0.45615588986727 0.86930671463886 0.55366857695551 
C129  C     0.88884699427331 0.27273419509030 0.96121482502049 
C130  C     0.30771933334214 0.70559645676898 0.79088832004039 
C131  C     0.28101469157136 0.20561251026426 0.70910756941964 
C132  C     0.56559764251768 0.77275342308845 0.53878798619449 
C133  C     0.65499186624096 0.22893245526729 0.94123695485337 
C134  C     0.90140487356738 0.76189125262044 0.80872424579730 
C135  C     0.57470742918061 0.26191684925070 0.69128065181674 
C136  C     0.88708554868590 0.72896124280196 0.55875855089007 
C137  C     0.80477785751059 0.20313507701250 0.96136491169990 
C138  C     0.09162137890869 0.77974404157926 0.78890845567613 
C139  C     0.34879082135430 0.27975264375341 0.71109901087029 
C140  C     0.78889759684461 0.70316324394715 0.53863298426883 
C141  C     0.86498687674525 0.10987471969833 0.98239223220261 
C142  C     0.06761193780474 0.86960316263519 0.76623166143182 
C143  C     0.19309351571086 0.36959356156894 0.73377778337092 
C144  C     0.91522355855213 0.60991075344693 0.51760488020763 
C145  C     0.76927065507359 0.04783981748247 0.98490261944803 
C146  C     0.86510739445434 0.93618066285466 0.76159285068989 
C147  C     0.26242624977616 0.43617858473182 0.73841069851892 
C148  C     0.13502149365001 0.54788478141509 0.51509472857193 
C149  C     0.60984543285031 0.14914518790572 0.93539634198251 
C150  C     0.68108581751035 0.84610073373113 0.81184187128894 
C151  C     0.62659116166489 0.34612506501742 0.68816126221635 
C152  C     0.09183151311028 0.64917867081860 0.56459968092237 
C153  C     0.63833675821523 0.06614089647522 0.96193888809407 
C154  C     0.66841190730041 0.92555000033480 0.78398181436538 
C155  C     0.48035895578794 0.42556795967807 0.71601893348061 
C156  C     0.22934959625860 0.56618610817924 0.53805817948925 
C157  C     0.53686585322608 0.00210117359069 0.96501025044494 
C158  C     0.45864894660705 0.99391660619175 0.77874748203785 
C159  C     0.55338716956529 0.49392677767497 0.72125542129318 
C160  C     0.45891124747742 0.50215258762334 0.53498506513485 
C161  C     0.42023463346750 0.01680676099243 0.94164167165958 
C162  C     0.26769888347155 0.98565917763849 0.80068039180025 
C163  C     0.76086087323553 0.48566822738159 0.69932890678513 
C164  C     0.54613574258716 0.51685120705628 0.55835316540893 
C165  C     0.54066550325903 0.14562818882166 0.90492209270326 
C166  C     0.47239118291368 0.85750781118449 0.84103035233092 
C167  C     0.81247728198887 0.35754169180914 0.65897487206828 
C168  C     0.16806351582280 0.64566256013324 0.59507196358905 
C169  C     0.42791812049720 0.08522065807627 0.91031742678548 
C170  C     0.26873768807287 0.92039430899439 0.83304343400294 
C171  C     0.89035590540716 0.42041584521565 0.66696503175608 
C172  C     0.40163654842289 0.58525331368511 0.58967586403953 
C173  C     0.33096102341347 0.08878570205130 0.88339426987084 
C174  C     0.06200891630712 0.92295331950535 0.85855529515455 
C175  C     0.09196932886333 0.42298405074033 0.64145635450362 
C176  C     0.49149494090806 0.58880029251293 0.61659575756086 
C177  C     0.36478777395534 0.14086759036444 0.85014809415254 
C178  C     0.05047023206692 0.87511059448072 0.89283657608373 
C179  C     0.19917771125921 0.37516674603680 0.60717297236155 
C180  C     0.35353868787008 0.64087897940776 0.64983991322213 
C181  C     0.51107218197224 0.18697619248725 0.84046109032209 
C182  C     0.24163592896108 0.82798302239100 0.90503422406698 
C183  C     0.10227013269719 0.32805036887605 0.59497338887455 
C184  C     0.11503009576533 0.68700189475695 0.65952743443088 
C185  C     0.60181496275489 0.18952030793614 0.86758427108357 
C186  C     0.45453145403694 0.81898222117055 0.87940114274890 
C187  C     0.90739459364886 0.31902960562532 0.62060420799627 
C188  C     0.01916284365249 0.68955423965996 0.63240838011056 
C189  C     0.76441395111742 0.22631824531986 0.85503590934843 
C190  C     0.63212646154620 0.78145326622026 0.89419176586031 
C191  C     0.80490456907653 0.28148365775422 0.60581156940457 
C192  C     0.78296416383778 0.72635528888848 0.64496181793533 
C193  C     0.82566161015163 0.26306672123817 0.81866905386660 
C194  C     0.60462658089335 0.75096296327698 0.93151021618650 
C195  C     0.89341691343875 0.25098980941127 0.56849437479338 
C196  C     0.64825927814929 0.76309113417674 0.68132955755779 
C197  C     0.72655568588802 0.26520820927154 0.79285532583709 
C198  C     0.39699121145364 0.75651515461618 0.95622896321746 
C199  C     0.08992035713551 0.25657039762688 0.54377771381905 
C200  C     0.74311236845244 0.76523105575938 0.70713754039768 
C201  C     0.57357598221498 0.22656864267333 0.80361294539289 
C202  C     0.21881506592909 0.79501186987352 0.94299239795716 
C203  C     0.19104587029968 0.29508992135039 0.55701520567710 
C204  C     0.97338108100557 0.72659077662939 0.69637472281691 
C205  C     0.33662556275852 0.37846646584480 0.92333614962575 
C206  C     0.78061556806493 0.62179581731326 0.83092497297824 
C207  C     0.97568688201570 0.12183488728661 0.66908944694089 
C208  C     0.90636364939473 0.87849962781055 0.57665146730528 
