data_stdin
_audit_creation_method 'critic2'
_audit_creation_date 2023-8-11
_chemical_formula_sum 'C26 H16'
_cell_formula_units_Z 2
_cell_length_a         7.3444476751
_cell_length_b         9.3665726408
_cell_length_c        13.8892112693
_cell_angle_alpha        84.1817
_cell_angle_beta       105.3773
_cell_angle_gamma       112.5011
_cell_volume           851.132043
_space_group_crystal_system triclinic
_space_group_IT_number 1
_space_group_name_H-M_alt 'P1'
_space_group_name_Hall 'P 1'
loop_
_symmetry_equiv_pos_site_id
_symmetry_equiv_pos_as_xyz
 1 'x,y,z'
loop_
_atom_site_label
_atom_site_type_symbol
_atom_site_fract_x
_atom_site_fract_y
_atom_site_fract_z
C1    C     0.15519238959116 0.28802671966008 0.90490924015658 
C2    C     0.24978640969499 0.78805625004447 0.09526503980225 
C3    C     0.05501398968404 0.36380614974796 0.94193958985435 
C4    C     0.11251095014707 0.86390718031548 0.05840204967774 
C5    C     0.85126588061251 0.28931571027667 0.93925050002347 
C6    C     0.91141924936171 0.78933613977461 0.06100501975277 
C7    C     0.83820731072637 0.06591734041732 0.85388074010368 
C8    C     0.98391504025551 0.56578577004547 0.14608862015347 
C9    C     0.74123048016985 0.13899448034930 0.89850231970079 
C10   C     0.84219504951031 0.63889933996861 0.10155668992397 
C11   C     0.53738277945855 0.05671001946691 0.90653934972504 
C12   C     0.63027899965811 0.55657198990714 0.09347124017426 
C13   C     0.44049889915576 0.90502113972506 0.87926716966833 
C14   C     0.56074543991607 0.40487967978060 0.12070888000919 
C15   C     0.72243362035882 0.91309213953829 0.81005937016285 
C16   C     0.91209820924006 0.41296897961297 0.18989155993158 
C17   C     0.53319491949323 0.82884975996971 0.83460548995236 
C18   C     0.69823329048648 0.32872632996146 0.16538278020594 
C19   C     0.43757892009305 0.66658354018502 0.81844098007548 
C20   C     0.61882426057560 0.16649749994588 0.18165576019149 
C21   C     0.53245642956598 0.58865697025992 0.78483159969622 
C22   C     0.74739290927288 0.08857095942616 0.21531548019457 
C23   C     0.79417262935231 0.83600319993119 0.75124296980461 
C24   C     0.04283333036845 0.33591516985119 0.24872297995599 
C25   C     0.71265147968262 0.67059481957617 0.75194624983465 
C26   C     0.96060126980135 0.17051235986200 0.24810896005147 
C27   C     0.81092157961180 0.58638763027396 0.71974463963445 
C28   C     0.09120264037234 0.08633919004697 0.28031867035427 
C29   C     0.98152436941299 0.66208140965602 0.68548384964749 
C30   C     0.29619596988013 0.16206963039228 0.31451243964263 
C31   C     0.94057603059389 0.91043576029776 0.69176661993584 
C32   C     0.24891976004842 0.41040564055979 0.30816632979296 
C33   C     0.04570501039151 0.82407269034623 0.66791353004503 
C34   C     0.37801217967503 0.32408764983464 0.33202312019062 
C35   C     0.21220930993943 0.89777381052554 0.62259106965727 
C36   C     0.59000140946749 0.39789094947869 0.37729014007817 
C37   C     0.26468028033028 0.04900704041441 0.59412225021231 
C38   C     0.67099479002087 0.54917363970325 0.40568243987995 
C39   C     0.14298541041550 0.13317065966489 0.60154028008837 
C40   C     0.54181830034566 0.63329953015866 0.39826863989624 
C41   C     0.97511980061160 0.06253174050942 0.64670068009774 
C42   C     0.32862415016537 0.56253213968826 0.35319858030206 
C43   C     0.84163748043306 0.14174637046451 0.63853237981590 
C44   C     0.20325373039973 0.64165119991780 0.36140228021146 
C45   C     0.87772619934079 0.28556257946418 0.59405582001284 
C46   C     0.28390060952349 0.78553008965850 0.40581273963091 
C47   C     0.05162053062953 0.35907440044760 0.55650989012088 
C48   C     0.49547702935300 0.85919209974325 0.44323837995217 
C49   C     0.18099531070181 0.28291055011575 0.55968120005472 
C50   C     0.62175675030375 0.78311371964485 0.44003812010153 
C51   C     0.04904003022270 0.14357358948912 0.86143747990649 
C52   C     0.18717177960336 0.64347881957045 0.13855087964337 
H1    H     0.31800715971391 0.34313042989594 0.91126887974226 
H2    H     0.40625258983062 0.84322171056555 0.08896136995189 
H3    H     0.13742505022891 0.47850470946046 0.97493134033123 
H4    H     0.16187540012165 0.97873081973489 0.02560160000274 
H5    H     0.77357838019652 0.34389957042103 0.97116231004763 
H6    H     0.80176335012129 0.84398634971872 0.02919958985745 
H7    H     0.46620271011054 0.11505860020254 0.94000021969430 
H8    H     0.52553305025552 0.61491286984609 0.06001868965487 
H9    H     0.28981196010321 0.83826824951979 0.89090108974438 
H10   H     0.39838910993299 0.33811562042737 0.10905832975876 
H11   H     0.29297180946283 0.60544363996050 0.83784818002331 
H12   H     0.45474250957136 0.10538126982323 0.16232574965773 
H13   H     0.46838650997394 0.46307281051471 0.77903512965122 
H14   H     0.68910362018083 0.96300437985061 0.22124321998653 
H15   H     0.75138479997761 0.46095238029297 0.72660225037115 
H16   H     0.02478545049326 0.96089590006572 0.27350604006316 
H17   H     0.06488708905100 0.59919087945387 0.66655818977935 
H18   H     0.39855192017724 0.09919390971245 0.33342979995049 
H19   H     0.29624997033724 0.82952875981909 0.61141745025560 
H20   H     0.68529573988806 0.32968385015981 0.38848731015060 
H21   H     0.39248895967081 0.10554398992471 0.56019886984735 
H22   H     0.83285026923984 0.60577967947086 0.43955930984202 
H23   H     0.70618756966480 0.08750821012555 0.66662339009150 
H24   H     0.03961790012907 0.58727958011447 0.33337717995856 
H25   H     0.76993923057530 0.34193681048486 0.58731459015632 
H26   H     0.18282572067380 0.84184206054266 0.41258191987538 
H27   H     0.08221929957343 0.47331558948875 0.52274449991960 
H28   H     0.55990870976900 0.97349034960952 0.47694147996563 
H29   H     0.31152139995559 0.33557990979610 0.52726890985033 
H30   H     0.78482001073015 0.83593183023749 0.47236355018596 
H31   H     0.13011183026164 0.08760951971326 0.83372812966131 
H32   H     0.29600163975583 0.58746783969895 0.16616948019794 
