data_stdin
_audit_creation_method 'critic2'
_audit_creation_date 2023-8-11
_chemical_formula_sum 'C30 H18'
_cell_formula_units_Z 4
_cell_length_a         9.3172236662
_cell_length_b        14.9978423000
_cell_length_c        13.8891308559
_cell_angle_alpha        90.0000
_cell_angle_beta        93.1018
_cell_angle_gamma        90.0000
_cell_volume          1937.999533
_space_group_crystal_system monoclinic
_space_group_IT_number 4
_space_group_name_H-M_alt 'P2_1'
_space_group_name_Hall 'P 2yb'
loop_
_symmetry_equiv_pos_site_id
_symmetry_equiv_pos_as_xyz
 1 'x,y,z'
 2 '-x,-1/2+y,-z'
loop_
_atom_site_label
_atom_site_type_symbol
_atom_site_fract_x
_atom_site_fract_y
_atom_site_fract_z
C1    C     0.55900209067336 0.48726746816770 0.58585028561208 
C2    C     0.74181453718078 0.35831600281955 0.00163981855622 
C3    C     0.79458436270408 0.54762692593707 0.97948785543432 
C4    C     0.99736535422890 0.46075647671883 0.91078472407723 
C5    C     0.46628867072329 0.42371832086658 0.53388996093110 
C6    C     0.59382730862818 0.35533891843586 0.02173263666154 
C7    C     0.94285202554554 0.52852807079820 0.97390604269657 
C8    C     0.28388066360484 0.60858213031012 0.54223849889832 
C9    C     0.13474830912053 0.62746750606234 0.54683377442272 
C10   C     0.64957094996861 0.40262264976012 0.18731512085424 
C11   C     0.90241079235658 0.40416167966401 0.25181202152124 
C12   C     0.80598525409967 0.51865540129670 0.64994774272255 
C13   C     0.23448383717038 0.35047815029420 0.50059307114851 
C14   C     0.14362207674022 0.46776684184523 0.88718594940691 
C15   C     0.43697330805955 0.30463166995367 0.41211497753518 
C16   C     0.19437928990534 0.41863373489619 0.80807129790844 
C17   C     0.48550353114522 0.61192154798482 0.42810331415927 
C18   C     0.99129444848628 0.33720365306873 0.07701939424205 
C19   C     0.79945644993964 0.39185107003741 0.17419857504525 
C20   C     0.60524152033246 0.59189635194987 0.72026252862738 
C21   C     0.16985117143911 0.67388791279959 0.71376808052466 
C22   C     0.50922587634947 0.55988250653094 0.64423572903462 
C23   C     0.37035428933106 0.60371734391979 0.63179044337022 
C24   C     0.67751718811895 0.31646327631234 0.83384889831957 
C25   C     0.40961162969788 0.66575452744607 0.79616776788043 
C26   C     0.03935179477331 0.61431424131133 0.46386727683512 
C27   C     0.77909312521632 0.35527452490842 0.90220900963633 
C28   C     0.29380119601783 0.56651119242469 0.27433594403604 
C29   C     0.23968440724357 0.52555339350726 0.94116834667422 
C30   C     0.76655649564951 0.41402868284305 0.51491415515376 
C31   C     0.70992752514046 0.47434548356147 0.58277597541828 
C32   C     0.52679127823275 0.36463750043920 0.46593404113403 
C33   C     0.84605828125401 0.36371880555678 0.08260500186207 
C34   C     0.08961791692783 0.58676630101707 0.37817478545664 
C35   C     0.31618345450019 0.64671863046884 0.71430034242985 
C36   C     0.84479700256139 0.65977126339622 0.10234297089099 
C37   C     0.24075648824353 0.58157765973576 0.36657072534136 
C38   C     0.08031242115854 0.65983449180840 0.63402722324586 
C39   C     0.75415170369250 0.57055996056614 0.72106947698828 
C40   C     0.95867512514376 0.35187337215099 0.77952757211381 
C41   C     0.33916671478634 0.59869608194960 0.44710010074038 
C42   C     0.67828443289200 0.36314820201721 0.45575596915417 
C43   C     0.53402814277033 0.60077573619779 0.33643647732235 
C44   C     0.10203308944653 0.36662539017694 0.75250765424095 
C45   C     0.72128455818371 0.29112201137281 0.74114718367261 
C46   C     0.74639602799786 0.61147163618470 0.04198714540044 
C47   C     0.55261606963536 0.64556746822179 0.79527236485612 
C48   C     0.29270964656222 0.29764474776395 0.42848501511195 
C49   C     0.49033589261502 0.32777568299830 0.94834918054150 
C50   C     0.53301928462895 0.30284853585657 0.85940385282066 
C51   C     0.86144034283092 0.30140134503900 0.71864417930994 
C52   C     0.91147165704581 0.38990812153743 0.86648604379139 
C53   C     0.04522428877850 0.38288286166028 0.24252717732364 
C54   C     0.04228094676330 0.58408531899885 0.02839298374355 
C55   C     0.19218089304130 0.57899111580800 0.01241556746865 
C56   C     0.99048903367149 0.64696592287487 0.09419089551454 
C57   C     0.55054798996782 0.38016806239099 0.11518071242665 
C58   C     0.31910668072844 0.41206557436554 0.55154854208568 
C59   C     0.08838562256771 0.34590791021626 0.15538222456677 
C60   C     0.43840846658175 0.57503718672184 0.25929744999777 
H1    H     0.71689446907248 0.51257324921880 0.93236396048872 
H2    H     0.61522855282234 0.42428001861341 0.25725894934034 
H3    H     0.86585788252311 0.42869507823719 0.32010686192480 
H4    H     0.92073261855915 0.50599837635174 0.64745351339782 
H5    H     0.12174131302732 0.34289069702640 0.51621385232967 
H6    H     0.48482927485416 0.26253813366290 0.35870531001432 
H7    H     0.30608238653068 0.42682343940289 0.79032882995573 
H8    H     0.56034673085370 0.63353653423681 0.48601467212236 
H9    H     0.02601701223786 0.30768614905861 0.01077541894870 
H10   H     0.13059533195472 0.70445496856458 0.77843578136930 
H11   H     0.36614552538191 0.70099912802897 0.85655854194060 
H12   H     0.92475165251651 0.62522700891957 0.47132878381336 
H13   H     0.21731384389474 0.55064841026238 0.21475154855683 
H14   H     0.35222876476558 0.52590448109818 0.92366835892656 
H15   H     0.88302788262259 0.40965230894989 0.51201214547221 
H16   H     0.01658866442093 0.57400315044445 0.31578077861673 
H17   H     0.80705207077349 0.70928372229026 0.15247823714261 
H18   H     0.96668653927281 0.67604596125672 0.63492146508301 
H19   H     0.82594871777526 0.59791497725715 0.77816240370707 
H20   H     0.72195583901353 0.31743366510688 0.40385780589077 
H21   H     0.64701807684928 0.61230576806481 0.32388727877378 
H22   H     0.13745997535232 0.33398220793043 0.68787149764949 
H23   H     0.64318599286733 0.26041616857696 0.69026657160683 
H24   H     0.63161363593079 0.62489303171578 0.04377906880638 
H25   H     0.62788395341869 0.66704300240773 0.85341989992824 
H26   H     0.22584776706214 0.25029931540903 0.38710509235837 
H27   H     0.37767399658320 0.32405607484087 0.96541786190617 
H28   H     0.45670783959563 0.27527873859570 0.80510576393375 
H29   H     0.89851102106060 0.27494526458934 0.65137619184611 
H30   H     0.12336662833293 0.39239480156945 0.30273887722075 
H31   H     0.26605407140507 0.62230061199828 0.05418868754588 
H32   H     0.06812924532747 0.68684201306748 0.13687952948752 
H33   H     0.43601778794614 0.38227178574161 0.12737426800187 
H34   H     0.27174943098460 0.45145266676335 0.60716891053784 
H35   H     0.19893496950703 0.32363292778700 0.14981607948213 
H36   H     0.47808044855398 0.56435874619024 0.18791457593920 
