data_stdin
_audit_creation_method 'critic2'
_audit_creation_date 2023-8-11
_chemical_formula_sum 'C30 H18'
_cell_formula_units_Z 2
_cell_length_a        13.0856482939
_cell_length_b         9.5862998408
_cell_length_c         8.0852283515
_cell_angle_alpha        80.3099
_cell_angle_beta        82.2159
_cell_angle_gamma        96.4909
_cell_volume           980.923350
_space_group_crystal_system triclinic
_space_group_IT_number 2
_space_group_name_H-M_alt 'P-1'
_space_group_name_Hall '-P 1'
loop_
_symmetry_equiv_pos_site_id
_symmetry_equiv_pos_as_xyz
 1 'x,y,z'
 2 '-x,-y,-z'
loop_
_atom_site_label
_atom_site_type_symbol
_atom_site_fract_x
_atom_site_fract_y
_atom_site_fract_z
C1    C     0.28987847768396 0.28561359760510 0.24640782513969 
C2    C     0.27214481251551 0.13064210930883 0.27855405186237 
C3    C     0.20837157701557 0.37069440711931 0.25875844818731 
C4    C     0.17433963959955 0.04602615008310 0.27308558537540 
C5    C     0.09449752538071 0.09523923426710 0.17898941286468 
C6    C     0.11236802264491 0.20589163891247 0.02854797797634 
C7    C     0.39445403283825 0.35753273567541 0.21439702246303 
C8    C     0.35622858633164 0.05797679898092 0.32353683239725 
C9    C     0.22878625639142 0.51830318116181 0.22830816320289 
C10   C     0.15431884923998 0.90355746101399 0.36850550194539 
C11   C     0.99001781664041 0.02829620436238 0.23884697886939 
C12   C     0.20906607012822 0.24105230944058 0.90948085423932 
C13   C     0.02735881760191 0.27810103448162 0.98834221547272 
C14   C     0.47901152275808 0.27703465208612 0.23197683020106 
C15   C     0.45955678102903 0.13351909853628 0.29461544220519 
C16   C     0.41319484853811 0.50868475930865 0.17601526946788 
C17   C     0.33704527647755 0.90983813564183 0.39712445186617 
C18   C     0.33179560073178 0.58855662998577 0.18064235510333 
C19   C     0.23780103741506 0.83817212029438 0.42933778751946 
C20   C     0.05119694376489 0.82861116474921 0.40353079570601 
C21   C     0.97032228586700 0.89398431579543 0.35186576079480 
C22   C     0.22290701432310 0.36474654575699 0.77746043750613 
C23   C     0.90568083738162 0.09657179866201 0.18569952027037 
C24   C     0.28800537831211 0.15137058035938 0.90659195062991 
C25   C     0.92436769709924 0.22404016131816 0.07396231729906 
C26   C     0.04468280219430 0.40291391728331 0.85844078880426 
C27   C     0.13995855491950 0.44809291754281 0.76103724846722 
C28   C     0.37777726907197 0.18578563824433 0.78780670061515 
C29   C     0.31586566389707 0.39834134227883 0.65795114903855 
C30   C     0.39285225354744 0.31120827202004 0.66329115204196 
H1    H     0.12847689111541 0.31860983311771 0.29672368902733 
H2    H     0.16509993968308 0.58132313473134 0.24335124221885 
H3    H     0.55818784963439 0.33373965958111 0.20392743123185 
H4    H     0.52312134364210 0.07342234643845 0.32196009015394 
H5    H     0.49341952347333 0.56100802352483 0.14720956771590 
H6    H     0.40185391178804 0.85625293611624 0.43403450495659 
H7    H     0.34711564250659 0.70483185188618 0.15359624249311 
H8    H     0.22181076021768 0.72806229553921 0.49733430334366 
H9    H     0.03739844169142 0.72094756858042 0.47920783166443 
H10   H     0.89016048540431 0.84212807599133 0.38988728763896 
H11   H     0.82662261847256 0.04704041333230 0.24032924873123 
H12   H     0.27699220840197 0.05151943847140 0.99711791829149 
H13   H     0.86068593832659 0.28192662960002 0.04133340724722 
H14   H     0.97983184118488 0.46237708633798 0.83977560056708 
H15   H     0.15231991408196 0.54428580380765 0.66360046163278 
H16   H     0.43668210677537 0.11419067123006 0.79090647690354 
H17   H     0.32417529858184 0.49182834860790 0.55706231957068 
H18   H     0.46323959120109 0.33732567425454 0.56922594294989 
