data_stdin
_audit_creation_method 'critic2'
_audit_creation_date 2023-8-11
_chemical_formula_sum 'C30 H18'
_cell_formula_units_Z 2
_cell_length_a         8.1694033220
_cell_length_b        11.4118159544
_cell_length_c        11.2720685789
_cell_angle_alpha        85.1594
_cell_angle_beta        70.9174
_cell_angle_gamma        92.7344
_cell_volume           986.411638
_space_group_crystal_system triclinic
_space_group_IT_number 2
_space_group_name_H-M_alt 'P-1'
_space_group_name_Hall '-P 1'
loop_
_symmetry_equiv_pos_site_id
_symmetry_equiv_pos_as_xyz
 1 'x,y,z'
 2 '-x,-y,-z'
loop_
_atom_site_label
_atom_site_type_symbol
_atom_site_fract_x
_atom_site_fract_y
_atom_site_fract_z
C1    C     0.01014216081362 0.29152537768327 0.72268574437131 
C2    C     0.99829684115772 0.16530210928777 0.71399143774900 
C3    C     0.96159338850821 0.34149413223023 0.83888728412160 
C4    C     0.89838509658238 0.07813963287222 0.81594566361626 
C5    C     0.75088305214531 0.10088826319526 0.92274606807802 
C6    C     0.63319104316332 0.19160168637881 0.92196015158622 
C7    C     0.08633640533804 0.37041323445209 0.60990188273507 
C8    C     0.09887820618065 0.12475010786775 0.59852436212704 
C9    C     0.97269376425576 0.46229572763388 0.84324112545839 
C10   C     0.95198951427474 0.96075140419156 0.81339903783881 
C11   C     0.71967591136650 0.02704398721591 0.03777573579309 
C12   C     0.59932752377053 0.24126427826285 0.81019948148489 
C13   C     0.53657214040347 0.23007710120169 0.03974721657386 
C14   C     0.16064495199525 0.32436665850220 0.49173164590924 
C15   C     0.17287517430081 0.20588398173191 0.48780867161153 
C16   C     0.09503663890301 0.49375652788426 0.61652727678250 
C17   C     0.12697349760986 0.00299301381693 0.59259810258028 
C18   C     0.03632478030637 0.53958690980444 0.73120716241347 
C19   C     0.06549322156899 0.92510499992071 0.69926468032115 
C20   C     0.89552829858764 0.88092132363249 0.92553021772544 
C21   C     0.79490707460955 0.91707147061407 0.03687104717728 
C22   C     0.49850411136434 0.34143489741861 0.81780080689778 
C23   C     0.61400891360624 0.06419494686858 0.15382270928065 
C24   C     0.64682859721367 0.18923523051960 0.69510498725884 
C25   C     0.53578767681158 0.16753523928335 0.15479849447910 
C26   C     0.43622502621476 0.32952178935498 0.04380625935236 
C27   C     0.42314611690814 0.38626538647890 0.93617384819253 
C28   C     0.60806190284912 0.23727923882616 0.59159028884213 
C29   C     0.46451505491439 0.39099768392142 0.70952243974674 
C30   C     0.51982569930923 0.34084790507623 0.59736611775497 
H1    H     0.91615693332920 0.28379565276278 0.92667336763610 
H2    H     0.93225441528141 0.49777293247433 0.93412884960170 
H3    H     0.21350191474616 0.38611299002039 0.40673401254159 
H4    H     0.23678665335479 0.16961213013134 0.39945447044172 
H5    H     0.15107048237294 0.55195703785554 0.52923499009135 
H6    H     0.20434637122300 0.97461529074289 0.50285032425003 
H7    H     0.04232201042630 0.63467839097890 0.73508658577316 
H8    H     0.09918811574040 0.83389669748825 0.69807075220673 
H9    H     0.94137465757878 0.79281454001889 0.92209572348456 
H10   H     0.76423375719653 0.86064161792629 0.12531586895966 
H11   H     0.60181267656270 0.01007185251032 0.24101203932804 
H12   H     0.71102846176387 0.10782425971990 0.68948588744925 
H13   H     0.46384256613735 0.20063047699742 0.24336155166184 
H14   H     0.36943679536865 0.35966285561216 0.13529555840476 
H15   H     0.34953717491539 0.46368960806671 0.93980883367645 
H16   H     0.64338713517008 0.19367530988649 0.50538624096917 
H17   H     0.38697847710986 0.46693884666359 0.71793398430544 
H18   H     0.49003351622101 0.37830278015402 0.51553059445951 
