data_stdin
_audit_creation_method 'critic2'
_audit_creation_date 2023-8-11
_chemical_formula_sum 'C30 H18'
_cell_formula_units_Z 4
_cell_length_a         9.1349122148
_cell_length_b        12.8392765500
_cell_length_c        18.0963249645
_cell_angle_alpha        90.0000
_cell_angle_beta        67.8032
_cell_angle_gamma        90.0000
_cell_volume          1965.149478
_space_group_crystal_system monoclinic
_space_group_IT_number 14
_space_group_name_H-M_alt 'P2_1/c'
_space_group_name_Hall '-P 2ybc'
loop_
_symmetry_equiv_pos_site_id
_symmetry_equiv_pos_as_xyz
 1 'x,y,z'
 2 '-x,-y,-z'
 3 '-x,-1/2+y,-1/2-z'
 4 'x,-1/2-y,-1/2+z'
loop_
_atom_site_label
_atom_site_type_symbol
_atom_site_fract_x
_atom_site_fract_y
_atom_site_fract_z
C1    C     0.31841812115963 0.35518482516667 0.29567690743501 
C2    C     0.28845119125467 0.32317093178094 0.22565877747509 
C3    C     0.47232684015872 0.36958080423077 0.29548587566719 
C4    C     0.40618229960638 0.27974987660506 0.15391719988674 
C5    C     0.54859185208663 0.22526975144572 0.14933780170883 
C6    C     0.56671636003282 0.16477974132988 0.21284821603348 
C7    C     0.18808318932250 0.38469525743233 0.36662639228377 
C8    C     0.13521099544280 0.34287934558189 0.22551565917911 
C9    C     0.49605383667824 0.40340362115682 0.36263333326020 
C10   C     0.38233835568607 0.29310804075511 0.08081391432621 
C11   C     0.68104490750519 0.23075720980867 0.07519932491330 
C12   C     0.43779288825999 0.11529401453909 0.27711541608999 
C13   C     0.72290408075709 0.14585033626719 0.20904873220915 
C14   C     0.03223928645802 0.38894173579896 0.36628040125619 
C15   C     0.00807090415075 0.37225917358772 0.29727693326132 
C16   C     0.21553980210275 0.41651501807292 0.43522525152934 
C17   C     0.10807098054195 0.33835519866951 0.15316182337869 
C18   C     0.36704744755863 0.42482711976896 0.43395831499811 
C19   C     0.23060869679271 0.32097254198097 0.08208732014325 
C20   C     0.51081703277769 0.28077986388646 0.00630900601294 
C21   C     0.65918450910036 0.26009337487528 0.00418670708472 
C22   C     0.46884329910415 0.06667572825958 0.34100113160708 
C23   C     0.83468426228853 0.20469977108288 0.07195264689251 
C24   C     0.28424288931231 0.10242098275942 0.27638907057826 
C25   C     0.85563678441817 0.16915659907790 0.13842648556341 
C26   C     0.74863006743100 0.10027402029023 0.27498180616449 
C27   C     0.62563368350328 0.06481341715219 0.34006212365909 
C28   C     0.16611885987467 0.05086793419528 0.33702301571060 
C29   C     0.34583531123735 0.01468006048768 0.40262882056410 
C30   C     0.19601995930281 0.00730066205268 0.40141044337225 
H1    H     0.57430117708056 0.35755863864146 0.24071437618728 
H2    H     0.61608094678650 0.41510403825037 0.35983263035444 
H3    H     0.93455035549517 0.41115266694303 0.42086236482538 
H4    H     0.89124307943891 0.38193304957173 0.29505347086485 
H5    H     0.11411818228959 0.43698154122156 0.48872330417914 
H6    H     0.98946859118506 0.35384826728015 0.15527754496543 
H7    H     0.38691387939122 0.44979911575407 0.48692373794589 
H8    H     0.21445642080950 0.32608496690479 0.02554288959789 
H9    H     0.48974271029413 0.29286384195905 0.95168599302208 
H10   H     0.76119889896754 0.26052258694041 0.94790924492480 
H11   H     0.93499510689592 0.21590129386900 0.01593339594860 
H12   H     0.25916396197470 0.13116689798978 0.22605691916150 
H13   H     0.97340306140728 0.15310265210505 0.13736704087058 
H14   H     0.87012486650915 0.09221526986350 0.27091165684866 
H15   H     0.64613275331716 0.02871180798483 0.38976644282931 
H16   H     0.04978631544495 0.04227700548888 0.33413872275083 
H17   H     0.37325007385342 0.97742726304880 0.44996350762959 
H18   H     0.10361253457698 0.96505471348987 0.44830207739527 
