data_stdin
_audit_creation_method 'critic2'
_audit_creation_date 2023-8-11
_chemical_formula_sum 'C30 H18'
_cell_formula_units_Z 8
_cell_length_a        17.3208546083
_cell_length_b         9.3634858104
_cell_length_c        24.2168510521
_cell_angle_alpha        90.0003
_cell_angle_beta        88.2659
_cell_angle_gamma        89.9999
_cell_volume          3925.776835
_space_group_crystal_system monoclinic
_space_group_IT_number 15
_space_group_name_H-M_alt 'C2/c'
_space_group_name_Hall '-C 2yc'
loop_
_symmetry_equiv_pos_site_id
_symmetry_equiv_pos_as_xyz
 1 'x,y,z'
 2 '-x,-y,-z'
 3 '-x,y,-1/2-z'
 4 'x,-y,-1/2+z'
 5 '-1/2+x,-1/2+y,z'
 6 '-1/2-x,-1/2-y,-z'
 7 '-1/2-x,-1/2+y,-1/2-z'
 8 '-1/2+x,-1/2-y,-1/2+z'
loop_
_atom_site_label
_atom_site_type_symbol
_atom_site_fract_x
_atom_site_fract_y
_atom_site_fract_z
C1    C     0.05605845714206 0.90048903644174 0.93286977695753 
C2    C     0.99557008380215 0.80719753591241 0.91362177161216 
C3    C     0.04417504796628 0.04696252733737 0.94502453483716 
C4    C     0.92516043189358 0.85566775255813 0.88896674644170 
C5    C     0.91519744192881 0.99257338323703 0.86190560252106 
C6    C     0.97661673779255 0.07705975892915 0.83672133579341 
C7    C     0.12940752423806 0.84056276417189 0.94540749642124 
C8    C     0.00489364365331 0.65792807749668 0.92248513828537 
C9    C     0.10259614114115 0.13145158218328 0.96489643704760 
C10   C     0.85982111182990 0.76258203795919 0.89219935167026 
C11   C     0.83867951294843 0.04859121690193 0.86055615043518 
C12   C     0.04953693982638 0.01959011326473 0.81587085333362 
C13   C     0.96413763874516 0.22611018733923 0.83037608875775 
C14   C     0.14014474406698 0.68950868896870 0.94367624526615 
C15   C     0.07868252507907 0.60141893994739 0.93580858078856 
C16   C     0.18928620780007 0.93039663217877 0.96349841963804 
C17   C     0.94063159035815 0.56413109707895 0.91870980530017 
C18   C     0.17644177882882 0.07384446044343 0.97310926441766 
C19   C     0.86920862387469 0.61681830833952 0.90723429082074 
C20   C     0.78461702839088 0.81552535435063 0.88153670902565 
C21   C     0.77407475588737 0.95717721960585 0.87043953241765 
C22   C     0.11242902552808 0.11487254965741 0.80417073340156 
C23   C     0.82672657135649 0.19530965248625 0.84810732732258 
C24   C     0.06015857045186 0.87355954611336 0.80256822550682 
C25   C     0.88823857229459 0.28323778622974 0.83683810337252 
C26   C     0.02772122008115 0.31855681383398 0.81729595760185 
C27   C     0.10029126210405 0.26539906171209 0.80781865407341 
C28   C     0.13054101271081 0.82232835800008 0.78271707045827 
C29   C     0.18474790237401 0.05913095779764 0.78595131342203 
C30   C     0.19412278378319 0.91503236145173 0.77579820754439 
H1    H     0.98707538174828 0.09261805875455 0.94087937782787 
H2    H     0.09076552071678 0.24233180107985 0.97571756443224 
H3    H     0.19701360483238 0.64605422505025 0.95173861001739 
H4    H     0.08472450732881 0.48582921120407 0.93882206486334 
H5    H     0.24529239812623 0.88265477350306 0.97123442740600 
H6    H     0.94877808824280 0.45099954336192 0.92728049192144 
H7    H     0.22229652636494 0.14073260046426 0.98871260639803 
H8    H     0.81859027986858 0.54778746240115 0.90787630168348 
H9    H     0.73577546225500 0.74246723537444 0.88509015961642 
H10   H     0.71632723863866 0.00158673376120 0.86671785408961 
H11   H     0.76788981242562 0.23659495110419 0.84911474604697 
H12   H     0.01141676014283 0.80119639195432 0.80692418840632 
H13   H     0.87990864210553 0.39714750239264 0.83028347348565 
H14   H     0.01688917154164 0.43315548119867 0.81581571340941 
H15   H     0.14901339597239 0.33662497969142 0.79963069668051 
H16   H     0.13652402057076 0.70971377688535 0.77201781851683 
H17   H     0.23256646174750 0.13297631442385 0.77860059621993 
H18   H     0.24973117949966 0.87385404895869 0.76105872761828 
