data_stdin
_audit_creation_method 'critic2'
_audit_creation_date 2023-8-11
_chemical_formula_sum 'C30 H18'
_cell_formula_units_Z 8
_cell_length_a        10.7329586460
_cell_length_b        14.6120872711
_cell_length_c        25.8279326574
_cell_angle_alpha        90.0001
_cell_angle_beta        90.0003
_cell_angle_gamma        89.9989
_cell_volume          4050.618657
_space_group_crystal_system orthorhombic
_space_group_IT_number 61
_space_group_name_H-M_alt 'Pbca'
_space_group_name_Hall '-P 2ac 2ab'
loop_
_symmetry_equiv_pos_site_id
_symmetry_equiv_pos_as_xyz
 1 'x,y,z'
 2 '-x,-y,-z'
 3 '-1/2-x,-y,-1/2+z'
 4 '-1/2+x,y,-1/2-z'
 5 '-1/2+x,-1/2-y,-z'
 6 '-1/2-x,-1/2+y,z'
 7 '-x,-1/2+y,-1/2-z'
 8 'x,-1/2-y,-1/2+z'
loop_
_atom_site_label
_atom_site_type_symbol
_atom_site_fract_x
_atom_site_fract_y
_atom_site_fract_z
C1    C     0.22700174441785 0.53295132519894 0.63407437782155 
C2    C     0.24678003189155 0.58070890864979 0.68260141573083 
C3    C     0.26682188673036 0.44175086373369 0.62551235632065 
C4    C     0.33481152105639 0.55278429236078 0.72203679486890 
C5    C     0.44759282379521 0.50049771503727 0.71310849475673 
C6    C     0.51496473294977 0.49764003147753 0.66467385459095 
C7    C     0.15425416804411 0.57543682920810 0.59423968495027 
C8    C     0.16897719430574 0.65724271284902 0.69311993850351 
C9    C     0.24410675119049 0.39707440790626 0.57926915627629 
C10   C     0.30867157984372 0.57919469511327 0.77410822760414 
C11   C     0.49737102901089 0.44962156090528 0.75559351707101 
C12   C     0.51067653435808 0.56889294127442 0.62566818634477 
C13   C     0.59711687673365 0.42303344160483 0.65570384115569 
C14   C     0.09483574300410 0.66100211279789 0.60411374567247 
C15   C     0.09710745382336 0.69785885858765 0.65267445537842 
C16   C     0.13505162337026 0.52926162406200 0.54667597924564 
C17   C     0.15967974791908 0.69238035132305 0.74439074106194 
C18   C     0.17982906992574 0.44171710044502 0.53891411691847 
C19   C     0.22051793665555 0.64965857841776 0.78412359151786 
C20   C     0.37013505735629 0.53502211152374 0.81601395531341 
C21   C     0.45478100913070 0.46707335485543 0.80684374202840 
C22   C     0.55984056501615 0.55088834633146 0.57521025293860 
C23   C     0.59096524706664 0.38235404750849 0.74659665437848 
C24   C     0.47156475951905 0.65947012964157 0.63654954889288 
C25   C     0.63277771763228 0.36533069851671 0.69752145758656 
C26   C     0.64670247453780 0.40746790610769 0.60509492609566 
C27   C     0.62275663179080 0.46649461564780 0.56530120777214 
C28   C     0.47253300005939 0.72675750611232 0.59897211002930 
C29   C     0.55339172888462 0.61952128839895 0.53652102226306 
C30   C     0.50965435758094 0.70605926968385 0.54796877862901 
H1    H     0.31369102931736 0.40505990464346 0.65643167175489 
H2    H     0.27452524373231 0.32645011884238 0.57462216095552 
H3    H     0.04099762381007 0.69335464125232 0.57333845340075 
H4    H     0.04309550009446 0.75890058107961 0.66169522309928 
H5    H     0.08181134543105 0.56350122545540 0.51637288123925 
H6    H     0.09792606979112 0.75022934865090 0.75144514994797 
H7    H     0.16457842919868 0.40700641832794 0.50211355819232 
H8    H     0.20423411485283 0.66957182139891 0.82416608052678 
H9    H     0.34465364620121 0.55398129166075 0.85538849044224 
H10   H     0.49602434060786 0.42882692148039 0.83869708533800 
H11   H     0.62672272113105 0.34326138282584 0.77933462143379 
H12   H     0.44402330743569 0.67710128352197 0.67573566430509 
H13   H     0.69882094406961 0.31039725548610 0.69030212587299 
H14   H     0.70454625818516 0.34704203179727 0.59898684073473 
H15   H     0.65756491552576 0.45308688165553 0.52643918301158 
H16   H     0.44403478322616 0.79604846728773 0.60879317731737 
H17   H     0.58642734475222 0.60306628804874 0.49778939508973 
H18   H     0.50666231757443 0.75879962722818 0.51817263408335 
