data_stdin
_audit_creation_method 'critic2'
_audit_creation_date 2023-8-11
_chemical_formula_sum 'C30 H18'
_cell_formula_units_Z 2
_cell_length_a         9.5591446552
_cell_length_b         9.2051760674
_cell_length_c        12.8480677420
_cell_angle_alpha        93.7567
_cell_angle_beta        87.8771
_cell_angle_gamma       118.6549
_cell_volume           989.930871
_space_group_crystal_system triclinic
_space_group_IT_number 2
_space_group_name_H-M_alt 'P-1'
_space_group_name_Hall '-P 1'
loop_
_symmetry_equiv_pos_site_id
_symmetry_equiv_pos_as_xyz
 1 'x,y,z'
 2 '-x,-y,-z'
loop_
_atom_site_label
_atom_site_type_symbol
_atom_site_fract_x
_atom_site_fract_y
_atom_site_fract_z
C1    C     0.44595222528915 0.53102857716102 0.86712314852310 
C2    C     0.59359459414759 0.66081396874730 0.82627348064775 
C3    C     0.42195343344560 0.37004421653139 0.88380440983318 
C4    C     0.71702774750849 0.63315472898613 0.77529995294916 
C5    C     0.69367927300840 0.47878838877476 0.72271181227231 
C6    C     0.54766758350748 0.35541610984094 0.67323535675467 
C7    C     0.32279818549322 0.56934071660177 0.90203643589999 
C8    C     0.62285720999299 0.82729164828136 0.84376122811583 
C9    C     0.28077874560152 0.25020664316573 0.92454529281570 
C10   C     0.87591509421309 0.76789616653447 0.77818218990319 
C11   C     0.82690572676740 0.44817067095336 0.71781432799821 
C12   C     0.42603452988608 0.38937305544907 0.63465198216405 
C13   C     0.52605254479775 0.19178283233417 0.65448871516557 
C14   C     0.35030427011880 0.73613994277620 0.90327759249948 
C15   C     0.49761598359590 0.86140667040749 0.87927892895521 
C16   C     0.17813876667735 0.44349902521475 0.94186900470929 
C17   C     0.77879749953047 0.96166133973354 0.82918987737567 
C18   C     0.15595173714041 0.28567320142272 0.95225306808285 
C19   C     0.90336502394889 0.93230898119155 0.80334650041586 
C20   C     0.00782022949329 0.73783779294950 0.75932332149232 
C21   C     0.98348214380523 0.57978696253081 0.73898627877796 
C22   C     0.27636677823118 0.25387941597294 0.60133860210364 
C23   C     0.80436137068472 0.28628433070574 0.68960214909067 
C24   C     0.45355494053524 0.55129246768259 0.61705591781090 
C25   C     0.65597558888812 0.15928035133086 0.66536826131117 
C26   C     0.37477867882212 0.05945497040513 0.62184661327888 
C27   C     0.25152677512785 0.08818010589268 0.60090086338349 
C28   C     0.33761637529248 0.57877864432881 0.57548870670254 
C29   C     0.15813132391878 0.28543709584057 0.56124962330955 
C30   C     0.18723915255500 0.44530193985674 0.54877199533526 
H1    H     0.51864289838726 0.34158887291894 0.86795188109737 
H2    H     0.26802305533746 0.12897385589283 0.93828824997530 
H3    H     0.25405095444529 0.76212403478287 0.92866682548058 
H4    H     0.52285887583559 0.99037351648398 0.88682139726721 
H5    H     0.08584215563011 0.47554563136187 0.96691134170609 
H6    H     0.79789987092646 0.08766592167488 0.84406702438302 
H7    H     0.04546593096468 0.19083877347735 0.98487901805819 
H8    H     0.02492169520579 0.03395651949923 0.79997976427847 
H9    H     0.12783164318717 0.84233223088070 0.76619753495322 
H10   H     0.08306812495124 0.55328251483710 0.73343040592729 
H11   H     0.90748684035722 0.26583074642862 0.68996314001643 
H12   H     0.57089260459332 0.65587383368071 0.63161595936845 
H13   H     0.63663540325129 0.03331070000554 0.64929354873255 
H14   H     0.36001766884639 0.93430740290647 0.61445943481914 
H15   H     0.13517437302174 0.98607223376374 0.57881223708138 
H16   H     0.36512646314518 0.70432338784432 0.55936206035705 
H17   H     0.04463529154505 0.18010942137155 0.53745455041244 
H18   H     0.09704514649581 0.46786609552812 0.51521834974868 
