data_stdin
_audit_creation_method 'critic2'
_audit_creation_date 2023-8-11
_chemical_formula_sum 'C30 H18'
_cell_formula_units_Z 2
_cell_length_a         8.8308609632
_cell_length_b         9.4120589500
_cell_length_c        12.6192151178
_cell_angle_alpha        90.0000
_cell_angle_beta        72.1169
_cell_angle_gamma        90.0000
_cell_volume           998.190384
_space_group_crystal_system monoclinic
_space_group_IT_number 4
_space_group_name_H-M_alt 'P2_1'
_space_group_name_Hall 'P 2yb'
loop_
_symmetry_equiv_pos_site_id
_symmetry_equiv_pos_as_xyz
 1 'x,y,z'
 2 '-x,-1/2+y,-z'
loop_
_atom_site_label
_atom_site_type_symbol
_atom_site_fract_x
_atom_site_fract_y
_atom_site_fract_z
C1    C     0.33601187474271 0.00233398278469 0.67249430520268 
C2    C     0.50585221652873 0.02833152065520 0.64311846488612 
C3    C     0.22064838894031 0.11220172159918 0.69900615295316 
C4    C     0.57589279577300 0.15758278131781 0.66834596509627 
C5    C     0.49711017971458 0.25581384371305 0.75643224032639 
C6    C     0.37537166019362 0.21766243494501 0.85839332839684 
C7    C     0.28106552769524 0.86073147148068 0.66534679425739 
C8    C     0.60925687305253 0.92154135848378 0.58065489367247 
C9    C     0.05973004626785 0.08313489857367 0.72545179468991 
C10   C     0.73257683323108 0.19324312991113 0.60012431207817 
C11   C     0.54484852499571 0.40105896795462 0.74184536385286 
C12   C     0.36108719972918 0.07871937145119 0.91025107188056 
C13   C     0.27058744598770 0.32647604188187 0.91615668127770 
C14   C     0.39269476576147 0.75072817390897 0.61845221451640 
C15   C     0.54982038020376 0.78255273497884 0.57139170898780 
C16   C     0.11560075806325 0.83312181176157 0.69701590433717 
C17   C     0.77245515476128 0.95331712372104 0.52676453866319 
C18   C     0.00591844202070 0.94190724036557 0.72762191050312 
C19   C     0.82986813341545 0.08758400802378 0.53102216326706 
C20   C     0.78844108109811 0.33531692043626 0.59905461071881 
C21   C     0.69191072933281 0.43813912832412 0.66148373503067 
C22   C     0.22383263989659 0.04748986904267 0.00293712381193 
C23   C     0.44569535462065 0.50780827450333 0.80815083658110 
C24   C     0.48396641420336 0.97563845468938 0.88160299945214 
C25   C     0.30601374249874 0.47160024737437 0.88673978645069 
C26   C     0.13403131749416 0.29146324175693 0.00743789064545 
C27   C     0.10799178142203 0.15541915554188 0.04643522679411 
C28   C     0.46875852785941 0.84652508755265 0.93601280340520 
C29   C     0.20900739204501 0.91276816678461 0.05518669655634 
C30   C     0.32857345056429 0.81286030007397 0.02194339122974 
H1    H     0.25942268208219 0.22199591869298 0.69626818669049 
H2    H     0.97417454420859 0.17008283271921 0.74345978576187 
H3    H     0.34935933248089 0.64325043336836 0.61435577093251 
H4    H     0.63295585773674 0.70157817506571 0.52627373437717 
H5    H     0.07667622604156 0.72391740479989 0.69322109427177 
H6    H     0.84773802600101 0.87002330193792 0.47769595473478 
H7    H     0.87908781132198 0.91941129860869 0.75021788397675 
H8    H     0.95167125348003 0.11534668202068 0.48368440563160 
H9    H     0.90451060427776 0.36189895551519 0.54151999310776 
H10   H     0.72790070248546 0.54933359537622 0.65415841757337 
H11   H     0.48063384358386 0.61859089124409 0.79281602397709 
H12   H     0.59465873716392 0.99992795809933 0.81732978032671 
H13   H     0.22574255618134 0.55330573621826 0.93362721677880 
H14   H     0.05148025827342 0.37594079699597 0.04644055376233 
H15   H     0.00280602642439 0.12946484879289 0.11563593803852 
H16   H     0.56730902449910 0.77148932926460 0.91424532854563 
H17   H     0.10232533784411 0.89104077811152 0.12449976827375 
H18   H     0.31804317573833 0.71060365827444 0.06386466750045 
