data_stdin
_audit_creation_method 'critic2'
_audit_creation_date 2023-8-11
_chemical_formula_sum 'C30 H18'
_cell_formula_units_Z 4
_cell_length_a         9.4255009746
_cell_length_b        15.1235143200
_cell_length_c        16.3667474615
_cell_angle_alpha        89.9997
_cell_angle_beta        57.0595
_cell_angle_gamma        89.9994
_cell_volume          1957.959303
_space_group_crystal_system monoclinic
_space_group_IT_number 14
_space_group_name_H-M_alt 'P2_1/c'
_space_group_name_Hall '-P 2ybc'
loop_
_symmetry_equiv_pos_site_id
_symmetry_equiv_pos_as_xyz
 1 'x,y,z'
 2 '-x,-y,-z'
 3 '-x,-1/2+y,-1/2-z'
 4 'x,-1/2-y,-1/2+z'
loop_
_atom_site_label
_atom_site_type_symbol
_atom_site_fract_x
_atom_site_fract_y
_atom_site_fract_z
C1    C     0.64690968531592 0.22840964170963 0.12306288012875 
C2    C     0.56230098271822 0.16583494213295 0.09619467323925 
C3    C     0.62241873474092 0.32109795944141 0.12585308720065 
C4    C     0.47770978791857 0.18895317219668 0.04713821740707 
C5    C     0.51551761420689 0.26553996650521 0.98505508467816 
C6    C     0.67634681178349 0.31136645985033 0.93087558146672 
C7    C     0.74899583213183 0.19607483639278 0.15686673585044 
C8    C     0.55397067576024 0.07621998952434 0.12533250054176 
C9    C     0.70253440350123 0.37874480050908 0.15371162804374 
C10   C     0.34386596539756 0.13222239469785 0.06262946570210 
C11   C     0.38258566849904 0.29827332285964 0.97581485908219 
C12   C     0.83935386518307 0.27105572194517 0.89660624617672 
C13   C     0.67635598714559 0.40059927416950 0.90333478654084 
C14   C     0.76044046274126 0.10332016695764 0.16788111814738 
C15   C     0.66052523548766 0.04599953768340 0.15660545975438 
C16   C     0.83099426699076 0.25631766977284 0.18415828375054 
C17   C     0.43542197275957 0.01685312142370 0.12667229538331 
C18   C     0.81055164417739 0.34634304165765 0.18144040716514 
C19   C     0.32484720826803 0.04665254827509 0.10344039959165 
C20   C     0.22928232179296 0.16065446449201 0.03701123119640 
C21   C     0.24041202298762 0.24421621285444 0.00224248847025 
C22   C     0.98722003101490 0.32558071495602 0.85452357043869 
C23   C     0.39225254623481 0.38511470947945 0.93952415622634 
C24   C     0.86374057079610 0.17842110319014 0.89321953409820 
C25   C     0.53004092008803 0.43704625260036 0.91131287549779 
C26   C     0.82492385095512 0.45375656693402 0.86438418043849 
C27   C     0.97379154568463 0.41834399211523 0.84431706635685 
C28   C     0.02199843305486 0.14179402502560 0.85578868532536 
C29   C     0.14766338995329 0.28672393988915 0.81764585741508 
C30   C     0.16550847423370 0.19622303408985 0.81882868859589 
H1    H     0.53634731101285 0.34724043195297 0.10721699001735 
H2    H     0.67985225161674 0.44956584339090 0.15542558492683 
H3    H     0.84105938224358 0.08044415893241 0.19226492135266 
H4    H     0.65810436431399 0.97576973057232 0.17217571405746 
H5    H     0.90918754409093 0.23033698515208 0.20879714399299 
H6    H     0.43054178248659 0.94894307426410 0.15021593790453 
H7    H     0.87472064319017 0.39140965015052 0.20290882277011 
H8    H     0.22434458715951 0.00452166232003 0.11157062873896 
H9    H     0.12841258197363 0.11621657674656 0.04946519024195 
H10   H     0.14444915449181 0.26931440323872 0.99073444418497 
H11   H     0.28504396963498 0.40965764818780 0.93798832886589 
H12   H     0.75576790360230 0.13518950454360 0.91890042282915 
H13   H     0.53461558072829 0.50537006453860 0.88915783700513 
H14   H     0.81616137142666 0.52354229522876 0.85088475641366 
H15   H     0.08705283045438 0.45869693034232 0.81480830193449 
H16   H     0.03549248375341 0.07016209896312 0.85452963923903 
H17   H     0.25835848792575 0.32947287872118 0.78599877367299 
H18   H     0.29022562555035 0.16790736510218 0.79001420127575 
