data_stdin
_audit_creation_method 'critic2'
_audit_creation_date 2023-8-11
_chemical_formula_sum 'C30 H18'
_cell_formula_units_Z 4
_cell_length_a        16.5446378753
_cell_length_b         9.7969784610
_cell_length_c        12.5578710585
_cell_angle_alpha        89.9998
_cell_angle_beta        90.1178
_cell_angle_gamma        89.9990
_cell_volume          2035.469136
_space_group_crystal_system monoclinic
_space_group_IT_number 5
_space_group_name_H-M_alt 'C2'
_space_group_name_Hall 'C 2y'
loop_
_symmetry_equiv_pos_site_id
_symmetry_equiv_pos_as_xyz
 1 'x,y,z'
 2 '-1/2-x,-1/2+y,-z'
 3 '-1/2+x,-1/2+y,z'
 4 '-x,y,-z'
loop_
_atom_site_label
_atom_site_type_symbol
_atom_site_fract_x
_atom_site_fract_y
_atom_site_fract_z
C1    C     0.26457734096894 0.99976300750022 0.86915254048597 
C2    C     0.33010492827488 0.91603233554660 0.82891046793286 
C3    C     0.18654757026947 0.94764283401751 0.89148546889935 
C4    C     0.31946783011420 0.78404846740019 0.77913322549734 
C5    C     0.24592017215098 0.73645508628610 0.72794702023464 
C6    C     0.18539958958803 0.82321600168229 0.67965152190901 
C7    C     0.28005302213498 0.13931310164178 0.89597617444313 
C8    C     0.41030574427974 0.96517211666847 0.84408340814826 
C9    C     0.12588763353288 0.03053067226763 0.93069156187648 
C10   C     0.38625532490020 0.69191880928066 0.78177374685163 
C11   C     0.23273569751522 0.59250219026649 0.72444042005156 
C12   C     0.20075125989134 0.95994599069293 0.64020825718062 
C13   C     0.10616812438841 0.76930159733453 0.66565536727416 
C14   C     0.36088400833523 0.19032521936513 0.89366828950863 
C15   C     0.42398448156825 0.10393746193832 0.87444950439681 
C16   C     0.21595020803878 0.22350707924646 0.93141044997371 
C17   C     0.47735597781613 0.87591374479914 0.82964368774458 
C18   C     0.13979638132635 0.17054690466434 0.94833586372057 
C19   C     0.46517439413333 0.74124896457809 0.80555707953723 
C20   C     0.37366218914949 0.55000336094952 0.76373388347298 
C21   C     0.29777549186563 0.50073497345378 0.74429533747015 
C22   C     0.13381636142970 0.04627463192495 0.61389552523068 
C23   C     0.15450683451147 0.54024076440892 0.70042487149576 
C24   C     0.27930926786902 0.00998354823394 0.61796715975921 
C25   C     0.09178923387822 0.62696044275164 0.67882834689586 
C26   C     0.04100502680524 0.85756819287898 0.63706111874876 
C27   C     0.05368942515059 0.99299234251314 0.61756414869077 
C28   C     0.29156366175785 0.14105100261994 0.58069505200578 
C29   C     0.14803847834825 0.18145236712600 0.57865803635944 
C30   C     0.22563889056358 0.22940661818315 0.56371992155830 
H1    H     0.17472952574460 0.83959805158439 0.88047392553380 
H2    H     0.06692339534196 0.98660727057760 0.94862755016757 
H3    H     0.37113583127326 0.29723152752072 0.91337371718843 
H4    H     0.48631454852398 0.13925886630386 0.88055672435455 
H5    H     0.22864327489905 0.33020583937991 0.94897056465331 
H6    H     0.53799561878724 0.91553319216886 0.84344675196922 
H7    H     0.09164819200929 0.23531306969129 0.97863714578311 
H8    H     0.51571301488598 0.67017513853348 0.80254356326886 
H9    H     0.42522332671368 0.48149556102301 0.77066859490614 
H10   H     0.28635567167390 0.39145709563087 0.73910861107704 
H11   H     0.14570005128165 0.43009426861631 0.70224078793682 
H12   H     0.33098223905656 0.94296548274575 0.62826509110105 
H13   H     0.03071487060478 0.58814500841326 0.66671251366054 
H14   H     0.98042099989352 0.81432979816572 0.63160747299557 
H15   H     0.00313666957369 0.06019213210315 0.59910439213691 
H16   H     0.35253171780994 0.17562732366346 0.56245544510845 
H17   H     0.09609687999025 0.24626384219994 0.56096376847823 
H18   H     0.23600438673429 0.33309079594495 0.53608875064776 
