data_stdin
_audit_creation_method 'critic2'
_audit_creation_date 2023-8-11
_chemical_formula_sum 'C30 H18'
_cell_formula_units_Z 8
_cell_length_a        16.6158915350
_cell_length_b         9.6404832313
_cell_length_c        25.2442680149
_cell_angle_alpha        89.9992
_cell_angle_beta        88.1367
_cell_angle_gamma        90.0000
_cell_volume          4041.620615
_space_group_crystal_system monoclinic
_space_group_IT_number 15
_space_group_name_H-M_alt 'C2/c'
_space_group_name_Hall '-C 2yc'
loop_
_symmetry_equiv_pos_site_id
_symmetry_equiv_pos_as_xyz
 1 'x,y,z'
 2 '-x,-y,-z'
 3 '-1/2-x,-1/2+y,-1/2-z'
 4 'x,-y,-1/2+z'
 5 '-1/2+x,-1/2+y,z'
 6 '-1/2-x,-1/2-y,-z'
 7 '-x,y,-1/2-z'
 8 '-1/2+x,-1/2-y,-1/2+z'
loop_
_atom_site_label
_atom_site_type_symbol
_atom_site_fract_x
_atom_site_fract_y
_atom_site_fract_z
C1    C     0.23400783476162 0.14008367960686 0.43346646150163 
C2    C     0.15754800279330 0.18704898804737 0.41378099058030 
C3    C     0.29839946745953 0.23102715366331 0.44423558348771 
C4    C     0.14462475037298 0.32091302081479 0.38949916414631 
C5    C     0.20673634753731 0.40640865724640 0.36419427426734 
C6    C     0.28117833491126 0.35567484506038 0.34001660819404 
C7    C     0.24313248097240 0.99756395935605 0.44795250386615 
C8    C     0.08983700026977 0.09806315703993 0.42195185313434 
C9    C     0.36963344472357 0.18310981603626 0.46430741608212 
C10   C     0.06450260484932 0.37487133322110 0.39139274159466 
C11   C     0.19291179876309 0.55249769686078 0.36272100528801 
C12   C     0.29231434524797 0.21682031407362 0.31890418782716 
C13   C     0.34669927952222 0.45007856146713 0.33394047336079 
C14   C     0.17566628856344 0.90620192832402 0.44701258642817 
C15   C     0.10089850231491 0.95684411709826 0.43724422581943 
C16   C     0.31744768088461 0.95022706551143 0.46701597350588 
C17   C     0.01033883694652 0.14953044769690 0.41593464595495 
C18   C     0.38011072598017 0.04102443717110 0.47491673352545 
C19   C     0.99813561337621 0.28626238870014 0.40419461432700 
C20   C     0.05044799262168 0.51811488119955 0.38146067294341 
C21   C     0.11378646910593 0.60591124671177 0.37168289550096 
C22   C     0.37199826325282 0.16959326281257 0.30520912171348 
C23   C     0.25795840609890 0.64509048901670 0.35147539932271 
C24   C     0.22752034123688 0.12750641335478 0.30722929968727 
C25   C     0.33378916087729 0.59498266822074 0.34111784671693 
C26   C     0.42522162926514 0.40024500264923 0.31916108895742 
C27   C     0.43823270699687 0.26329785217171 0.30795930715450 
C28   C     0.24047526755520 0.99575003623430 0.28714200247524 
C29   C     0.38384309491574 0.03262659804714 0.28617320609911 
C30   C     0.31937615730214 0.94616491419733 0.27761086621646 
H1    H     0.29053460412056 0.34177857429585 0.43888424602790 
H2    H     0.41693291519715 0.25652240289490 0.47356768645191 
H3    H     0.18426471411176 0.79716921289955 0.45659953115768 
H4    H     0.04798142971139 0.89011079437022 0.44046148453265 
H5    H     0.32351254607212 0.84060570472827 0.47659778014039 
H6    H     0.95963191751889 0.07963000064526 0.42326239180836 
H7    H     0.43613319034660 0.00359744416718 0.49085586596594 
H8    H     0.93768866084013 0.32967829766231 0.40341722838891 
H9    H     0.98885837318274 0.55666108057034 0.38431243712952 
H10   H     0.10465586065909 0.71739747762388 0.36833067076356 
H11   H     0.24638125226860 0.75626349399079 0.35239227570045 
H12   H     0.16611428246649 0.16404860965643 0.31333208058186 
H13   H     0.38460568586952 0.66522920879575 0.33515044480214 
H14   H     0.47485174312576 0.47426354942046 0.31734254017174 
H15   H     0.49860669093264 0.22534899746296 0.29817792607008 
H16   H     0.18934187410393 0.93060119024604 0.27775645929919 
H17   H     0.44520199818770 0.99778885691213 0.27732398841443 
H18   H     0.32874324001943 0.84178259433816 0.26221810669610 
