data_stdin
_audit_creation_method 'critic2'
_audit_creation_date 2023-8-11
_chemical_formula_sum 'C30 H18'
_cell_formula_units_Z 4
_cell_length_a        18.0988534457
_cell_length_b        12.8347288700
_cell_length_c         9.1360721846
_cell_angle_alpha        90.0000
_cell_angle_beta       112.1878
_cell_angle_gamma        90.0000
_cell_volume          1965.103523
_space_group_crystal_system monoclinic
_space_group_IT_number 14
_space_group_name_H-M_alt 'P2_1/c'
_space_group_name_Hall '-P 2ybc'
loop_
_symmetry_equiv_pos_site_id
_symmetry_equiv_pos_as_xyz
 1 'x,y,z'
 2 '-x,-y,-z'
 3 '-1/2-x,-1/2+y,-z'
 4 '-1/2+x,-1/2-y,z'
loop_
_atom_site_label
_atom_site_type_symbol
_atom_site_fract_x
_atom_site_fract_y
_atom_site_fract_z
C1    C     0.79564432853285 0.35517831166379 0.18145590922784 
C2    C     0.72562725965524 0.32315624748913 0.21139798410086 
C3    C     0.79547335358180 0.36958878886575 0.02758406754651 
C4    C     0.65390902102417 0.27972492119155 0.09367460345349 
C5    C     0.64935503050954 0.22523098004565 0.95129869500972 
C6    C     0.71287306240786 0.16474421151544 0.93320374137576 
C7    C     0.86657420824507 0.38467525722814 0.31178017721432 
C8    C     0.72546445092315 0.34285768445910 0.36460686510703 
C9    C     0.86262091773080 0.40341094382122 0.00387786495754 
C10   C     0.58080918276605 0.29307480935928 0.11749644465262 
C11   C     0.57524343022085 0.23070280746172 0.81885746783927 
C12   C     0.77712273499261 0.11526736048472 0.06212424795973 
C13   C     0.70911059305540 0.14582292814056 0.77705934015396 
C14   C     0.86620856720137 0.38890285679565 0.46759047253908 
C15   C     0.79720664267509 0.37222418681287 0.49173884944541 
C16   C     0.93517160134893 0.41650339857021 0.28434526466626 
C17   C     0.65311162381690 0.33833372114552 0.39171973994346 
C18   C     0.93392378512640 0.42482766093488 0.13287094830173 
C19   C     0.58206083680612 0.32094495864871 0.26919372592207 
C20   C     0.50633128531613 0.28072930470126 0.98903066717941 
C21   C     0.50423161112954 0.26003348642755 0.84069739304387 
C22   C     0.84103460936445 0.06668864628216 0.03112788432237 
C23   C     0.57202859528014 0.20463614383976 0.66525944345797 
C24   C     0.77635851908449 0.10236719335198 0.21562119756003 
C25   C     0.63851051156054 0.16911292685820 0.64433554337604 
C26   C     0.77506407473133 0.10027850735576 0.75138204319724 
C27   C     0.84012934082157 0.06484197429634 0.87438127445798 
C28   C     0.83698716447221 0.05084156689867 0.33375883646208 
C29   C     0.90265574467469 0.01471900917119 0.15414803203389 
C30   C     0.90140503116311 0.00732608008054 0.30391946929608 
H1    H     0.74071820136115 0.35757906697394 0.92562343021489 
H2    H     0.85983640682353 0.41511868848961 0.88387710509183 
H3    H     0.92077530746103 0.41110448361675 0.56527364394516 
H4    H     0.79497235871733 0.38188790726022 0.60854622452730 
H5    H     0.98865265511076 0.43697053170951 0.38575510302221 
H6    H     0.65520933612058 0.35382823939440 0.51029573011516 
H7    H     0.98688752894454 0.44980470126561 0.11301963968988 
H8    H     0.52551980017152 0.32605163437466 0.28533276522902 
H9    H     0.45170889709668 0.29280622062194 0.01008655931431 
H10   H     0.44797324604524 0.26045323558244 0.73869603377862 
H11   H     0.51602792053111 0.21581982051507 0.56495355453206 
H12   H     0.72600311928911 0.13107066079331 0.24064629418547 
H13   H     0.63747429736909 0.15305963639074 0.52659915719266 
H14   H     0.77102710931115 0.09222935080257 0.62992276289603 
H15   H     0.88985022925280 0.02876779364007 0.85391519327974 
H16   H     0.83407539786545 0.04223371009618 0.45005193244813 
H17   H     0.95001359009799 0.97749490827563 0.12678081093095 
H18   H     0.94829620128621 0.96510540875902 0.39634099636187 
