data_stdin
_audit_creation_method 'critic2'
_audit_creation_date 2023-8-11
_chemical_formula_sum 'C30 H18'
_cell_formula_units_Z 4
_cell_length_a        12.6003381800
_cell_length_b        14.6096225705
_cell_length_c        13.1659953710
_cell_angle_alpha        89.9998
_cell_angle_beta        54.4534
_cell_angle_gamma        90.0000
_cell_volume          1972.007803
_space_group_crystal_system monoclinic
_space_group_IT_number 14
_space_group_name_H-M_alt 'P2_1/c'
_space_group_name_Hall '-P 2ybc'
loop_
_symmetry_equiv_pos_site_id
_symmetry_equiv_pos_as_xyz
 1 'x,y,z'
 2 '-x,-y,-z'
 3 '-x,-1/2+y,-1/2-z'
 4 'x,-1/2-y,-1/2+z'
loop_
_atom_site_label
_atom_site_type_symbol
_atom_site_fract_x
_atom_site_fract_y
_atom_site_fract_z
C1    C     0.52278732151849 0.93955953312229 0.81949896692865 
C2    C     0.60467652511322 0.01270644481968 0.81282724421958 
C3    C     0.56150444091661 0.84655673921445 0.79627401115326 
C4    C     0.74273352611450 0.00402892563620 0.75722371631033 
C5    C     0.83113470814629 0.93687223904313 0.66419460291969 
C6    C     0.82273077736967 0.89870080703072 0.56742019729550 
C7    C     0.39136142469040 0.95933406286057 0.86263379042048 
C8    C     0.54243213479902 0.09696274499646 0.87210009317814 
C9    C     0.48065495839228 0.77841619046944 0.80465222519297 
C10   C     0.79761386493202 0.06594038039496 0.79899549688941 
C11   C     0.93890316355549 0.90901878702663 0.66583329711397 
C12   C     0.75804935887046 0.94275297957917 0.51814671615457 
C13   C     0.89171072567240 0.81594564001711 0.50879891842448 
C14   C     0.33876430239162 0.04849653905710 0.90755307990163 
C15   C     0.41036291403037 0.11347124466355 0.91690709160413 
C16   C     0.31130071623350 0.88869673196563 0.86798372101424 
C17   C     0.61037502552642 0.16603858095950 0.88914306321943 
C18   C     0.35515185300021 0.79955024022746 0.83781368903738 
C19   C     0.73148611295088 0.14860042044353 0.86022323161199 
C20   C     0.91655024286602 0.04400361697290 0.78279058883130 
C21   C     0.97800731159448 0.96296038649775 0.72889065711362 
C22   C     0.74639740127062 0.89480150510936 0.42994828573265 
C23   C     0.01046063758357 0.82870645003865 0.60082774309283 
C24   C     0.71832245049692 0.03561227281583 0.54123898015718 
C25   C     0.98144731967246 0.78013782657697 0.53120228387650 
C26   C     0.87588355158704 0.76955796182416 0.42300209812079 
C27   C     0.80177004229002 0.80584314258706 0.38819140429125 
C28   C     0.66512211899201 0.07726791036844 0.48613304347788 
C29   C     0.68895857991760 0.93841401593414 0.37687970036327 
C30   C     0.64776781899475 0.02822813642231 0.40479164170237 
H1    H     0.65613316441313 0.82769078767727 0.77387104367918 
H2    H     0.51424879131486 0.70779123868699 0.78581664085036 
H3    H     0.23836420666075 0.06211906470860 0.94075325626731 
H4    H     0.36794400510831 0.17985713354831 0.95831532111236 
H5    H     0.21268838919128 0.90641537390228 0.89875902385511 
H6    H     0.56064617248899 0.23044262960023 0.93190094939353 
H7    H     0.29288738235322 0.74588450739763 0.84181410129814 
H8    H     0.77953809569360 0.19717720962373 0.88372503351461 
H9    H     0.95442486696361 0.09134269745348 0.81840806978220 
H10   H     0.06382271514743 0.94212089138954 0.72411042861053 
H11   H     0.08801482951515 0.80690225814408 0.60873486059259 
H12   H     0.73502484905347 0.07642103277964 0.59942857873729 
H13   H     0.03237198731655 0.71663371384691 0.48509493556490 
H14   H     0.92565208777349 0.70433222721873 0.38448760850649 
H15   H     0.79109361564964 0.76992433749953 0.32207037206752 
H16   H     0.63754947445357 0.14915627477569 0.50529744920244 
H17   H     0.67979488859307 0.90001757868048 0.31130305927013 
H18   H     0.60382435546923 0.06091487378044 0.36340129455244 
