data_stdin
_audit_creation_method 'critic2'
_audit_creation_date 2023-8-11
_chemical_formula_sum 'C30 H18'
_cell_formula_units_Z 4
_cell_length_a         9.3321124157
_cell_length_b        15.1101447100
_cell_length_c        15.4393508635
_cell_angle_alpha        90.0001
_cell_angle_beta        65.1227
_cell_angle_gamma        89.9997
_cell_volume          1975.084651
_space_group_crystal_system monoclinic
_space_group_IT_number 14
_space_group_name_H-M_alt 'P2_1/c'
_space_group_name_Hall '-P 2ybc'
loop_
_symmetry_equiv_pos_site_id
_symmetry_equiv_pos_as_xyz
 1 'x,y,z'
 2 '-x,-y,-z'
 3 '-x,-1/2+y,-1/2-z'
 4 'x,-1/2-y,-1/2+z'
loop_
_atom_site_label
_atom_site_type_symbol
_atom_site_fract_x
_atom_site_fract_y
_atom_site_fract_z
C1    C     0.79238802259743 0.72757460881071 0.42845858208856 
C2    C     0.78612736276582 0.65723833854939 0.36589714739443 
C3    C     0.66430316917252 0.74907995277924 0.51624454893768 
C4    C     0.64205991943856 0.61516490359572 0.37300305619797 
C5    C     0.48496919606242 0.65340617548223 0.41723635135691 
C6    C     0.44917238325119 0.74689994042155 0.42361407937384 
C7    C     0.93803005251523 0.77363722115625 0.40582312002242 
C8    C     0.93274482766204 0.62385312731863 0.29717611201205 
C9    C     0.67407850320422 0.81692051255231 0.57358838718721 
C10   C     0.65409898729892 0.52708516135526 0.33691651026257 
C11   C     0.35534081544172 0.59350847330907 0.45842343318485 
C12   C     0.55004055449661 0.81330058385532 0.35866383630079 
C13   C     0.30271824373137 0.77556116025588 0.49619526941509 
C14   C     0.07873145493364 0.74414439674827 0.32823791348221 
C15   C     0.07669858455216 0.66974022502496 0.27865786821740 
C16   C     0.94392834528254 0.84442670487510 0.46437916979444 
C17   C     0.93765256441844 0.54256521169292 0.24904628307224 
C18   C     0.81375681130305 0.86685688332088 0.54672275756724 
C19   C     0.80366428376414 0.49300673030071 0.27341127852214 
C20   C     0.51779043763940 0.47232016651769 0.36687338508102 
C21   C     0.37566200522662 0.50246051354685 0.43279788439905 
C22   C     0.51803365009286 0.90511065759675 0.38186144449007 
C23   C     0.20578856051211 0.62501516781383 0.52529341086092 
C24   C     0.67244509269813 0.79239152039486 0.26856838783598 
C25   C     0.18400974675304 0.71280134830849 0.54866101532264 
C26   C     0.27332798122915 0.86772437352006 0.51616453985088 
C27   C     0.38048748652372 0.93034028820845 0.46415457717937 
C28   C     0.76433014608159 0.85743441975711 0.20748854274911 
C29   C     0.61771743923314 0.97029036344012 0.31983176787673 
C30   C     0.74010236503994 0.94715460186201 0.23416724194413 
H1    H     0.55677535605367 0.71026568331496 0.54028708975504 
H2    H     0.57347058690467 0.83058605072920 0.64104771996085 
H3    H     0.18932551308295 0.77864138759312 0.31313667314365 
H4    H     0.18585877974359 0.64398249602372 0.22335799397735 
H5    H     0.05572031801473 0.87900349503351 0.44475064201644 
H6    H     0.05110724171572 0.51711413783280 0.19820456163318 
H7    H     0.82013432299241 0.92034442135499 0.59229827568655 
H8    H     0.80930863440699 0.42667294118950 0.24461013021663 
H9    H     0.53039843184071 0.40501885201977 0.33939552118673 
H10   H     0.27427455648687 0.45839067375938 0.46336134830123 
H11   H     0.11172477131076 0.57701459657916 0.55985146733287 
H12   H     0.69232989909295 0.72395930699608 0.24542233571885 
H13   H     0.07393766476970 0.73682358127975 0.60448631726255 
H14   H     0.16199923516644 0.88695928135393 0.57432823201191 
H15   H     0.35860817026829 0.00024498512153 0.48187808739263 
H16   H     0.85296202778512 0.83875164983034 0.13727730690849 
H17   H     0.59177744648772 0.03952655694650 0.34007389154842 
H18   H     0.81300840992924 0.99808682488572 0.18587760969419 
