data_stdin
_audit_creation_method 'critic2'
_audit_creation_date 2023-8-11
_chemical_formula_sum 'C30 H18'
_cell_formula_units_Z 4
_cell_length_a        11.8571801964
_cell_length_b        10.9091057800
_cell_length_c        16.6029188520
_cell_angle_alpha        90.0001
_cell_angle_beta        63.7724
_cell_angle_gamma        90.0001
_cell_volume          1926.501930
_space_group_crystal_system monoclinic
_space_group_IT_number 14
_space_group_name_H-M_alt 'P2_1/c'
_space_group_name_Hall '-P 2ybc'
loop_
_symmetry_equiv_pos_site_id
_symmetry_equiv_pos_as_xyz
 1 'x,y,z'
 2 '-x,-y,-z'
 3 '-x,-1/2+y,-1/2-z'
 4 'x,-1/2-y,-1/2+z'
loop_
_atom_site_label
_atom_site_type_symbol
_atom_site_fract_x
_atom_site_fract_y
_atom_site_fract_z
C1    C     0.12275816303233 0.69025376884275 0.94455352503669 
C2    C     0.09889548312980 0.63715537526543 0.03076502902310 
C3    C     0.20741143524481 0.63860396078785 0.86148292964366 
C4    C     0.17895304285357 0.54795861598658 0.04475993572869 
C5    C     0.31168980906991 0.52923846784472 0.98647489896367 
C6    C     0.39720580082389 0.61982435441975 0.92667981349280 
C7    C     0.05155953898766 0.79478789118072 0.94160750192126 
C8    C     0.98598140473708 0.67242084267259 0.10618199899978 
C9    C     0.22923421547158 0.69255241993710 0.78057752535673 
C10   C     0.12198349157900 0.47049989875613 0.12189290043004 
C11   C     0.36287276636004 0.41119411585507 0.98821924846987 
C12   C     0.38311548907158 0.75154577808494 0.93939722115448 
C13   C     0.50638840242302 0.57658117732507 0.85184517787065 
C14   C     0.95077675937017 0.83887970249395 0.02213812940896 
C15   C     0.91604756008770 0.77584049641279 0.10050250397728 
C16   C     0.07679794368916 0.84949996579255 0.85810402000711 
C17   C     0.94061931006194 0.60378705616395 0.18736801296436 
C18   C     0.16527774642344 0.80042840011024 0.77858577734223 
C19   C     0.00258005007714 0.50076817260441 0.19246696467372 
C20   C     0.18411831240693 0.36248801984822 0.12888281213865 
C21   C     0.29731916898253 0.32964844411495 0.06096086872302 
C22   C     0.46175969409008 0.83146641002557 0.86808483508384 
C23   C     0.47945023597906 0.37440700023576 0.91691693884704 
C24   C     0.30107229380472 0.80687919051424 0.02187171147299 
C25   C     0.54364314575915 0.45176120053198 0.84672695896228 
C26   C     0.58193009537271 0.65860170069010 0.78177419810564 
C27   C     0.55785352787665 0.78137735025835 0.78760538771338 
C28   C     0.28936283240495 0.93286061046113 0.03143173184787 
C29   C     0.44639779817137 0.96001468504792 0.87902577454293 
C30   C     0.35994453618716 0.01051828163609 0.95866069183989 
H1    H     0.25338267107334 0.55256971673836 0.86126306646846 
H2    H     0.29426173025964 0.64956735016384 0.71788998881149 
H3    H     0.89867988811085 0.91962694797160 0.01910736532746 
H4    H     0.83431679224697 0.80378881315796 0.16119511491691 
H5    H     0.02271197379953 0.92998109867297 0.85760693021487 
H6    H     0.85155766417054 0.63048613294998 0.24280022450505 
H7    H     0.18212989682624 0.84326487958113 0.71506786779715 
H8    H     0.96330089826457 0.44049180972159 0.25068108246409 
H9    H     0.13638060777447 0.30468033071686 0.18774671732183 
H10   H     0.34266631444912 0.24393340415629 0.06356228173240 
H11   H     0.51395806502501 0.28228623266750 0.91838293574699 
H12   H     0.24668690335583 0.74907216714408 0.07918479593179 
H13   H     0.62752199798356 0.42159740179709 0.78841622071628 
H14   H     0.65915089121480 0.61928081365740 0.72297459823494 
H15   H     0.61375829363196 0.84296557976182 0.73273924439394 
H16   H     0.22544033262164 0.97213950230933 0.09595074950602 
H17   H     0.50525855217106 0.01888672141304 0.82318691990101 
H18   H     0.34786845573548 0.10940009097405 0.96561103670260 
