data_stdin
_audit_creation_method 'critic2'
_audit_creation_date 2023-8-11
_chemical_formula_sum 'C30 H18'
_cell_formula_units_Z 4
_cell_length_a        14.5686120801
_cell_length_b        14.4837478300
_cell_length_c         9.5982656301
_cell_angle_alpha        90.0000
_cell_angle_beta        90.0005
_cell_angle_gamma        90.0000
_cell_volume          2025.311828
_space_group_crystal_system orthorhombic
_space_group_IT_number 33
_space_group_name_H-M_alt 'Pna2_1'
_space_group_name_Hall 'P 2c -2n'
loop_
_symmetry_equiv_pos_site_id
_symmetry_equiv_pos_as_xyz
 1 'x,y,z'
 2 '-x,-y,-1/2+z'
 3 '-1/2-x,-1/2+y,-1/2+z'
 4 '-1/2+x,-1/2-y,z'
loop_
_atom_site_label
_atom_site_type_symbol
_atom_site_fract_x
_atom_site_fract_y
_atom_site_fract_z
C1    C     0.68676665983585 0.48640847264313 0.99424412038121 
C2    C     0.63414295296043 0.42065327658142 0.91313573832587 
C3    C     0.75597030512203 0.54306967262576 0.93555021415472 
C4    C     0.66222851807626 0.38557970253970 0.77921765215321 
C5    C     0.75641936098746 0.37966372211070 0.73230586624292 
C6    C     0.83494965538342 0.37015091206023 0.82317108785194 
C7    C     0.66304973778895 0.50135638079067 0.13704627018276 
C8    C     0.54754470237278 0.39235751682154 0.96603650797789 
C9    C     0.80298597045792 0.60707975944421 0.01503532853304 
C10   C     0.59235676087776 0.35492292924335 0.68586799223526 
C11   C     0.77226379024260 0.38327143715722 0.58574617194209 
C12   C     0.83164986902931 0.33055282221452 0.96206622432825 
C13   C     0.92225676403613 0.39682524965509 0.77070760720568 
C14   C     0.58245449789537 0.45892562156568 0.19274328305351 
C15   C     0.52413743824284 0.41114874515067 0.10778236022766 
C16   C     0.71516883516838 0.56428494519111 0.21796092812958 
C17   C     0.48411380468371 0.34657146341987 0.87686156242829 
C18   C     0.78400076536134 0.61664619320542 0.15833487238949 
C19   C     0.50335121253264 0.33449152201873 0.73850459619431 
C20   C     0.61251399379031 0.34695053185103 0.54113970477417 
C21   C     0.69810173091097 0.36824168187328 0.49156883453617 
C22   C     0.90957717495532 0.34030494574359 0.05188296989641 
C23   C     0.86229767759510 0.40174088189580 0.53501744519350 
C24   C     0.75861253181036 0.27402176191920 0.00950355164598 
C25   C     0.93387239174690 0.41404661360904 0.62559891617684 
C26   C     0.99880926499545 0.40508523583748 0.86283165298809 
C27   C     0.99157066220068 0.38183832327700 0.00017204184961 
C28   C     0.75945225867713 0.23472432031336 0.14087746159640 
C29   C     0.90734369806415 0.30193712249095 0.18752612656913 
C30   C     0.83332234760456 0.25033815786804 0.23267170962767 
H1    H     0.77037849636624 0.53796406160993 0.82478672208816 
H2    H     0.85387315537850 0.65176623215322 0.96645477041857 
H3    H     0.56487900626297 0.47124596251286 0.30133507433477 
H4    H     0.45861655709186 0.38590172958532 0.14685686102820 
H5    H     0.69730357004908 0.57329069513302 0.32733962672927 
H6    H     0.41795624965985 0.32610665063136 0.91920961896068 
H7    H     0.82141139800420 0.66753877321048 0.21951060533518 
H8    H     0.45144721115761 0.30778351422965 0.66746208002303 
H9    H     0.55716164271495 0.32795431728911 0.47024993856529 
H10   H     0.71193773132377 0.36979320691124 0.38011894978073 
H11   H     0.87209635770953 0.40828952088148 0.42297067707979 
H12   H     0.70141790473977 0.25934314937174 0.94052492407933 
H13   H     0.00165748195413 0.43349518320491 0.58782282652796 
H14   H     0.06337619992469 0.43061119372078 0.82048568944536 
H15   H     0.04975026497465 0.39009263799232 0.07035425251393 
H16   H     0.70260780728255 0.19076426389921 0.17306167601133 
H17   H     0.96729967502219 0.31102714986939 0.25417397058307 
H18   H     0.83263279774249 0.21986598828856 0.33641819622596 
