data_stdin
_audit_creation_method 'critic2'
_audit_creation_date 2023-8-11
_chemical_formula_sum 'C30 H18'
_cell_formula_units_Z 2
_cell_length_a         8.5330770500
_cell_length_b        10.6535847609
_cell_length_c        11.5660131574
_cell_angle_alpha        86.2805
_cell_angle_beta        76.5146
_cell_angle_gamma        71.1789
_cell_volume           967.721521
_space_group_crystal_system triclinic
_space_group_IT_number 2
_space_group_name_H-M_alt 'P-1'
_space_group_name_Hall '-P 1'
loop_
_symmetry_equiv_pos_site_id
_symmetry_equiv_pos_as_xyz
 1 'x,y,z'
 2 '-x,-y,-z'
loop_
_atom_site_label
_atom_site_type_symbol
_atom_site_fract_x
_atom_site_fract_y
_atom_site_fract_z
C1    C     0.32641798116928 0.62729250425203 0.74195873827801 
C2    C     0.48945491013940 0.60721122395437 0.65943202416846 
C3    C     0.17001092203844 0.70564880666383 0.71590623672124 
C4    C     0.51927500308123 0.68880015196537 0.55672879209198 
C5    C     0.41588693173584 0.82408180070645 0.54069215497931 
C6    C     0.31336400995439 0.91843832135365 0.63503142601962 
C7    C     0.31900773624185 0.55870283216522 0.85273853014310 
C8    C     0.62828161081048 0.49750148663182 0.67997065990685 
C9    C     0.01748603852483 0.72608346804797 0.79812885180859 
C10   C     0.66238860057315 0.63138991559492 0.46225527090239 
C11   C     0.41653518174777 0.86784431321171 0.42117934488155 
C12   C     0.34189672205611 0.91293866527472 0.75440721716825 
C13   C     0.17762644543165 0.02666455839681 0.60846818917945 
C14   C     0.46743870722928 0.46018037558740 0.87506335258192 
C15   C     0.61436239794933 0.42718273348753 0.78929770009593 
C16   C     0.16235094203330 0.58448735627380 0.93721537344937 
C17   C     0.78199433242228 0.45657913096635 0.59125744467884 
C18   C     0.01371895326461 0.66858233262220 0.91155912298740 
C19   C     0.79382502442309 0.51613526779322 0.48278704195978 
C20   C     0.67463357936217 0.68868763672268 0.34726493908810 
C21   C     0.54716341646214 0.79733888264610 0.32548813645607 
C22   C     0.21453893427878 0.99605818088483 0.84598004293965 
C23   C     0.28727922930100 0.98324879387175 0.39751325751215 
C24   C     0.49551501220164 0.83473363682660 0.78479981176938 
C25   C     0.16465660807369 0.05542447644895 0.48850946290292 
C26   C     0.05336143689361 0.10773614741588 0.70194913831714 
C27   C     0.06729186119874 0.09058348143518 0.81745919765725 
C28   C     0.51590446348000 0.82880476392410 0.90037910989564 
C29   C     0.23732931252894 0.98677293679714 0.96405558539193 
C30   C     0.38400855707591 0.90227029232274 0.99190745633037 
H1    H     0.16974104538471 0.74895255146405 0.62846668232377 
H2    H     0.89975882342802 0.78670922281783 0.77454977976121 
H3    H     0.46006096893201 0.40839312755011 0.95943206085447 
H4    H     0.72488016302890 0.34647215433911 0.80365528609845 
H5    H     0.16067789829816 0.53455211662992 0.02255852386407 
H6    H     0.88744994777884 0.37374114935243 0.60948237170402 
H7    H     0.89445620269499 0.68782209418237 0.97775623397666 
H8    H     0.90549026646847 0.47842863640835 0.41113818743483 
H9    H     0.78295265667634 0.64029742017656 0.27640658446985 
H10   H     0.54847994304397 0.83622923381250 0.23601364625201 
H11   H     0.28668987776866 0.01037814895304 0.30519684277128 
H12   H     0.60043757026334 0.77930186165528 0.71558442690535 
H13   H     0.05953724837237 0.13920351413345 0.47110830330518 
H14   H     0.94473920990344 0.18268252322366 0.67820955471240 
H15   H     0.97038573502125 0.15103281041946 0.88884143939126 
H16   H     0.63588317735759 0.76770577323322 0.92027853773324 
H17   H     0.13679901082804 0.04899949238505 0.03249036444611 
H18   H     0.39990916685723 0.89577503111051 0.08299545357797 
