data_stdin
_audit_creation_method 'critic2'
_audit_creation_date 2023-8-11
_chemical_formula_sum 'C30 H18'
_cell_formula_units_Z 8
_cell_length_a        29.9584759515
_cell_length_b         8.3347746406
_cell_length_c        15.7601726175
_cell_angle_alpha        90.0005
_cell_angle_beta        90.0021
_cell_angle_gamma        89.9990
_cell_volume          3935.270114
_space_group_crystal_system orthorhombic
_space_group_IT_number 60
_space_group_name_H-M_alt 'Pbcn'
_space_group_name_Hall '-P 2n 2ab'
loop_
_symmetry_equiv_pos_site_id
_symmetry_equiv_pos_as_xyz
 1 'x,y,z'
 2 '-x,-y,-z'
 3 '-1/2-x,-1/2-y,-1/2+z'
 4 '-1/2+x,-1/2+y,-1/2-z'
 5 '-1/2+x,-1/2-y,-z'
 6 '-1/2-x,-1/2+y,z'
 7 '-x,y,-1/2-z'
 8 'x,-y,-1/2+z'
loop_
_atom_site_label
_atom_site_type_symbol
_atom_site_fract_x
_atom_site_fract_y
_atom_site_fract_z
C1    C     0.13072207475903 0.78027556028214 0.59647166713749 
C2    C     0.17328147397165 0.84552973007538 0.56923938379916 
C3    C     0.11286392497511 0.63433460824160 0.56526664673964 
C4    C     0.19651042381461 0.79914180295111 0.49262044803191 
C5    C     0.17553317854046 0.73144981820135 0.41789608947174 
C6    C     0.12929833736885 0.75369274262339 0.39375057135605 
C7    C     0.10651333164060 0.85983200853702 0.66258070333822 
C8    C     0.19407032512588 0.96052476308271 0.62308299096243 
C9    C     0.07189586536952 0.57701531650000 0.59206197223952 
C10   C     0.24373277712570 0.82189154896950 0.49028705986385 
C11   C     0.20268175605601 0.63671860282540 0.36281435177541 
C12   C     0.10281575074784 0.89350607568507 0.41550575917106 
C13   C     0.10950087230405 0.63738196006078 0.33953985621590 
C14   C     0.12581665738635 0.99439921770661 0.70473554713600 
C15   C     0.16892881393613 0.03758958450465 0.68849621878185 
C16   C     0.06433498723724 0.80028242003321 0.68827286657053 
C17   C     0.24007054821628 0.99806531057028 0.61213350482082 
C18   C     0.04675504110450 0.66278973110096 0.65246117924688 
C19   C     0.26487353555496 0.92034231572290 0.55208219328881 
C20   C     0.26961894510569 0.74752657107366 0.42571241635137 
C21   C     0.25004871306776 0.64786203933464 0.36771497815379 
C22   C     0.05590641796778 0.89367681475270 0.39796188984720 
C23   C     0.18212488137311 0.53096109050369 0.30347019987103 
C24   C     0.12197908738070 0.03859984584971 0.44473385345078 
C25   C     0.13667638863459 0.52203999105656 0.29717073022627 
C26   C     0.06245794484871 0.63978745490690 0.32450086089309 
C27   C     0.03609731348249 0.75971916125295 0.35582376147412 
C28   C     0.09629871246605 0.17321099044885 0.46027519598438 
C29   C     0.03013978105504 0.03160350644628 0.41648365853456 
C30   C     0.04978352861678 0.16937815305896 0.44769054299383 
H1    H     0.13193612200175 0.56503734766390 0.51960213623077 
H2    H     0.05928480194853 0.46396788801249 0.56710228073285 
H3    H     0.10636477407933 0.05641212869434 0.75281453130389 
H4    H     0.18473312993224 0.13380485677422 0.72448535964415 
H5    H     0.04658201312614 0.86353990886214 0.73855694675919 
H6    H     0.25525329917850 0.08674539027434 0.65384047316885 
H7    H     0.01401104237408 0.61916143658202 0.67163391862305 
H8    H     0.30077276277014 0.93881150960946 0.54799520663144 
H9    H     0.30547933687067 0.76788949455492 0.42502754919183 
H10   H     0.27021128243130 0.57992734205450 0.32275477817002 
H11   H     0.20339211195261 0.45310885452705 0.26562811500752 
H12   H     0.15784866157096 0.04560182670743 0.45288366799109 
H13   H     0.12083460230086 0.43394705899597 0.25606449213189 
H14   H     0.04849562889094 0.54377485128443 0.28589162704231 
H15   H     0.00020434788341 0.76077037555197 0.34430573016379 
H16   H     0.11238566054835 0.28339569127265 0.48137755794090 
H17   H     0.99440826411239 0.02860648430469 0.40412987343781 
H18   H     0.02936538898798 0.27473283352417 0.46055149203499 
