data_stdin
_audit_creation_method 'critic2'
_audit_creation_date 2023-8-11
_chemical_formula_sum 'C30 H18'
_cell_formula_units_Z 8
_cell_length_a        22.0639401700
_cell_length_b        19.0705035700
_cell_length_c         9.6649634154
_cell_angle_alpha        89.9981
_cell_angle_beta        90.0006
_cell_angle_gamma        90.0000
_cell_volume          4066.731001
_space_group_crystal_system orthorhombic
_space_group_IT_number 61
_space_group_name_H-M_alt 'Pbca'
_space_group_name_Hall '-P 2ac 2ab'
loop_
_symmetry_equiv_pos_site_id
_symmetry_equiv_pos_as_xyz
 1 'x,y,z'
 2 '-x,-y,-z'
 3 '-x,-1/2+y,-1/2-z'
 4 'x,-1/2-y,-1/2+z'
 5 '-1/2-x,-y,-1/2+z'
 6 '-1/2+x,y,-1/2-z'
 7 '-1/2+x,-1/2-y,-z'
 8 '-1/2-x,-1/2+y,z'
loop_
_atom_site_label
_atom_site_type_symbol
_atom_site_fract_x
_atom_site_fract_y
_atom_site_fract_z
C1    C     0.38005872449935 0.50172869159040 0.27252393944872 
C2    C     0.39017815632091 0.53321048831148 0.40730498637146 
C3    C     0.42370834674870 0.50266463422200 0.16496250602375 
C4    C     0.43823709832589 0.58238576722658 0.43854532255269 
C5    C     0.46862762139457 0.62725547949229 0.33905942251679 
C6    C     0.44196251185819 0.65438369996259 0.21316580738649 
C7    C     0.32624221758379 0.46137008944279 0.24914822138784 
C8    C     0.35243780638933 0.51052366154003 0.51811671160651 
C9    C     0.41325542913949 0.47048381108666 0.03907405309965 
C10   C     0.45827195628778 0.58670424962925 0.57881981357712 
C11   C     0.52956190572538 0.64737498488459 0.36990130344557 
C12   C     0.37733233008253 0.66318539984204 0.19026317779061 
C13   C     0.48166499351740 0.67775662910388 0.10654086896434 
C14   C     0.28510587326351 0.44901777180055 0.36021223286157 
C15   C     0.29925746292583 0.47022744204690 0.49110921402630 
C16   C     0.31575369014673 0.43049282645481 0.11793187613549 
C17   C     0.36818169730433 0.52616627186370 0.65766436979193 
C18   C     0.35805724206278 0.43567480570330 0.01336161392877 
C19   C     0.42169032503939 0.55902651842117 0.68714082153115 
C20   C     0.51542378562934 0.61726112399419 0.61059664052880 
C21   C     0.55237580542414 0.64043048268890 0.50684450560419 
C22   C     0.35604111938962 0.67986361742650 0.05410049403481 
C23   C     0.56684339604600 0.67634267606528 0.26419987949882 
C24   C     0.33393025576998 0.66235157371436 0.29836930735572 
C25   C     0.54456996380056 0.68668521932386 0.13381594941204 
C26   C     0.45880521304355 0.69356924309999 0.97194574210641 
C27   C     0.39821273434450 0.69123463676401 0.94448546074511 
C28   C     0.27287822191543 0.67284461281636 0.27295961974093 
C29   C     0.29328711908703 0.68938240863986 0.03039218825893 
C30   C     0.25204829085987 0.68541884644214 0.13748621379436 
H1    H     0.46720995635271 0.52740796167255 0.18360390231569 
H2    H     0.44828235709619 0.47080846412487 0.95982468219712 
H3    H     0.24388837375998 0.41922884399022 0.34038673402550 
H4    H     0.26996331973523 0.45658359441914 0.57765340199814 
H5    H     0.27368291465775 0.40157792277022 0.10213019854981 
H6    H     0.33851686847341 0.50792734008486 0.74026665321516 
H7    H     0.34989247246618 0.41162025338214 0.91296449663841 
H8    H     0.43640908755406 0.56638912224839 0.79365434564792 
H9    H     0.53052698368320 0.61746655625428 0.71775060169150 
H10   H     0.59879033012083 0.65656453654002 0.52847991181673 
H11   H     0.61378764731875 0.68883162751811 0.28898846852004 
H12   H     0.34892681233825 0.65558756877495 0.40440701058080 
H13   H     0.57361035449529 0.70499026241553 0.05024561793268 
H14   H     0.49097742862449 0.70795766663087 0.89132062860416 
H15   H     0.38116363456549 0.70201058302408 0.84096183666590 
H16   H     0.24106292598077 0.67235461621128 0.35917964085728 
H17   H     0.27839914607809 0.70175880979403 0.92577948146905 
H18   H     0.20396551033048 0.69312935861008 0.11726234469715 
