data_stdin
_audit_creation_method 'critic2'
_audit_creation_date 2023-8-11
_chemical_formula_sum 'C30 H18'
_cell_formula_units_Z 8
_cell_length_a         9.8178450450
_cell_length_b        14.9593174547
_cell_length_c        26.4006480692
_cell_angle_alpha        90.0002
_cell_angle_beta        89.9982
_cell_angle_gamma        89.9998
_cell_volume          3877.417263
_space_group_crystal_system orthorhombic
_space_group_IT_number 61
_space_group_name_H-M_alt 'Pbca'
_space_group_name_Hall '-P 2ac 2ab'
loop_
_symmetry_equiv_pos_site_id
_symmetry_equiv_pos_as_xyz
 1 'x,y,z'
 2 '-x,-y,-z'
 3 '-1/2-x,-y,-1/2+z'
 4 '-1/2+x,y,-1/2-z'
 5 '-1/2+x,-1/2-y,-z'
 6 '-1/2-x,-1/2+y,z'
 7 '-x,-1/2+y,-1/2-z'
 8 'x,-1/2-y,-1/2+z'
loop_
_atom_site_label
_atom_site_type_symbol
_atom_site_fract_x
_atom_site_fract_y
_atom_site_fract_z
C1    C     0.72579420953477 0.08296537530720 0.37523036096102 
C2    C     0.75785683272243 0.03682481166887 0.32835626119112 
C3    C     0.77326262739144 0.17025707227387 0.38659643226634 
C4    C     0.85896808650537 0.06672696479548 0.29222158790006 
C5    C     0.97926974446385 0.11842950210843 0.30414753939240 
C6    C     0.05390401537618 0.11413254305497 0.35134291158819 
C7    C     0.62836549292077 0.04453578671286 0.40939803484491 
C8    C     0.67480447331244 0.96277391270835 0.31469020656775 
C9    C     0.73327537872841 0.21517591789001 0.42990311615422 
C10   C     0.83680362579304 0.04528750579554 0.24021652896490 
C11   C     0.03135802756068 0.17555982401371 0.26535930519562 
C12   C     0.05536117778524 0.03711350899719 0.38483519957649 
C13   C     0.14098048707060 0.18702455374684 0.36366673988751 
C14   C     0.56503700506142 0.96135696646440 0.39728616721839 
C15   C     0.58507144065084 0.92334395349931 0.35086202818244 
C16   C     0.58901645258965 0.09207230903422 0.45342698884023 
C17   C     0.67412804823005 0.93075432986770 0.26383201534805 
C18   C     0.64125313637368 0.17560556091302 0.46417629955765 
C19   C     0.74501416935540 0.97543531821864 0.22713027121801 
C20   C     0.90479367593205 0.09436281273365 0.20164425761379 
C21   C     0.99024806706723 0.16299011793885 0.21419074702432 
C22   C     0.12211618579310 0.04373838780646 0.43297600131695 
C23   C     0.12620177312501 0.24390848455149 0.27796368549292 
C24   C     0.00640193091499 0.95153722426704 0.37050742700799 
C25   C     0.17159322111956 0.25332236244615 0.32664090448242 
C26   C     0.20430769357773 0.19193833601729 0.41227010587551 
C27   C     0.19111106945255 0.12413181721628 0.44654783661454 
C28   C     0.01352869435491 0.87902511113315 0.40288746091255 
C29   C     0.12531825028956 0.96912302153394 0.46594610034553 
C30   C     0.07034805681326 0.88811168290794 0.45162425849552 
H1    H     0.83936029836910 0.20433110907821 0.35995059877792 
H2    H     0.77055250375675 0.28284056725730 0.43636161818162 
H3    H     0.49346124760363 0.93203985365509 0.42416220292340 
H4    H     0.52862780909845 0.86381648579696 0.33974470078141 
H5    H     0.51296647332489 0.06203674190214 0.47818323270397 
H6    H     0.60825761887951 0.87450072866424 0.25443442972764 
H7    H     0.60965157041712 0.21142053325776 0.49810724073852 
H8    H     0.73400215463613 0.95814673794714 0.18731248968884 
H9    H     0.88288484099289 0.07872479318425 0.16223151417804 
H10   H     0.03454348590473 0.20560434976585 0.18507541758858 
H11   H     0.16049769565484 0.28928659428135 0.24832711650143 
H12   H     0.96528511508348 0.94183718253062 0.33278498150945 
H13   H     0.24000332788807 0.30760502626388 0.33710359899397 
H14   H     0.26506398189525 0.25089935265218 0.42098090999198 
H15   H     0.23868817389006 0.12810921391796 0.48378432479891 
H16   H     0.97514198759451 0.81431026904985 0.39053902594570 
H17   H     0.17336611162896 0.97650090913872 0.50287418890552 
H18   H     0.07279422057020 0.83162816444510 0.47762450631594 
