data_stdin
_audit_creation_method 'critic2'
_audit_creation_date 2023-8-11
_chemical_formula_sum 'C30 H18'
_cell_formula_units_Z 2
_cell_length_a        11.2212914019
_cell_length_b         9.0639331792
_cell_length_c        11.4977957164
_cell_angle_alpha        66.6474
_cell_angle_beta       111.6614
_cell_angle_gamma       109.6888
_cell_volume           972.602663
_space_group_crystal_system triclinic
_space_group_IT_number 2
_space_group_name_H-M_alt 'P-1'
_space_group_name_Hall '-P 1'
loop_
_symmetry_equiv_pos_site_id
_symmetry_equiv_pos_as_xyz
 1 'x,y,z'
 2 '-x,-y,-z'
loop_
_atom_site_label
_atom_site_type_symbol
_atom_site_fract_x
_atom_site_fract_y
_atom_site_fract_z
C1    C     0.93841081712078 0.95007807780064 0.70240620449746 
C2    C     0.86059803504760 0.03387656215155 0.57510726360917 
C3    C     0.95850729402076 0.79079162773813 0.73463917431579 
C4    C     0.77187201107441 0.95412475797100 0.47812843033358 
C5    C     0.71095793637326 0.77984261849702 0.50642736207273 
C6    C     0.67995794750157 0.67392521437008 0.62867468144381 
C7    C     0.00558900137684 0.03430869945686 0.79893071044965 
C8    C     0.87603280907315 0.20672027166012 0.54164026285077 
C9    C     0.02593593008637 0.71061295846538 0.85985185996590 
C10   C     0.74273237725848 0.05361976636342 0.34359198506377 
C11   C     0.67780470650863 0.70785784302355 0.40535032671441 
C12   C     0.65416078091073 0.73104879079819 0.71645057983841 
C13   C     0.66590413561335 0.50158116013609 0.66119204204781 
C14   C     0.00457919958548 0.20338100203045 0.76531081166766 
C15   C     0.94550232099986 0.28759896074509 0.63982709902904 
C16   C     0.07532372537932 0.95040026352747 0.92618129120894 
C17   C     0.82357585989784 0.30050278359662 0.40943894699562 
C18   C     0.08152414829989 0.78890029447100 0.95799116989458 
C19   C     0.76690462254711 0.22764455680997 0.31218056902368 
C20   C     0.69164685145902 0.97823350782664 0.24225933162481 
C21   C     0.67106362428044 0.81113258048169 0.27318272504209 
C22   C     0.64784009669082 0.62200068904325 0.84550196351004 
C23   C     0.65096030216874 0.53344115415875 0.43740170840350 
C24   C     0.62217648672503 0.88550512030014 0.67673686786784 
C25   C     0.65582772202675 0.43431872466226 0.56414780000216 
C26   C     0.65731456857189 0.39563773194552 0.78983146379090 
C27   C     0.65538940636587 0.45497608114790 0.88122332762278 
C28   C     0.59490553158164 0.93441040642782 0.76204489942226 
C29   C     0.62530929814020 0.67777817330436 0.93301575630179 
C30   C     0.60028269173927 0.83225121724429 0.89265098936413 
H1    H     0.92256600135409 0.73135169338921 0.65897353031409 
H2    H     0.03821662286813 0.58721390695742 0.88194771703360 
H3    H     0.05475860741178 0.26427259115473 0.84097390956233 
H4    H     0.94822770706064 0.41814105659895 0.61222807396756 
H5    H     0.12452080245377 0.01596281116642 0.99873626826181 
H6    H     0.83624187272634 0.43243670668816 0.38684150016057 
H7    H     0.13277373603931 0.72408371395495 0.05684589344267 
H8    H     0.73733623643904 0.30088302972471 0.20935219055197 
H9    H     0.67774498490123 0.05748267876156 0.14039370176353 
H10   H     0.64415935939828 0.75344371882978 0.19737226361090 
H11   H     0.62814359495216 0.48041848382325 0.35960687763199 
H12   H     0.61530335496789 0.96542373309384 0.57595213724896 
H13   H     0.64388522357039 0.30188954389022 0.59029822888668 
H14   H     0.65167290139688 0.26509361036214 0.81344028976689 
H15   H     0.65138283411551 0.37345602421319 0.97998524409435 
H16   H     0.56551842356015 0.05082113937916 0.72695915894526 
H17   H     0.62366011457010 0.59383117907793 0.03176829000457 
H18   H     0.58096516964431 0.87312715048102 0.95989719500036 
