data_stdin
_audit_creation_method 'critic2'
_audit_creation_date 2023-8-11
_chemical_formula_sum 'C30 H18'
_cell_formula_units_Z 4
_cell_length_a        14.2811317609
_cell_length_b        12.9033831400
_cell_length_c        11.2872805853
_cell_angle_alpha        90.0000
_cell_angle_beta        74.3975
_cell_angle_gamma        90.0000
_cell_volume          2003.317782
_space_group_crystal_system monoclinic
_space_group_IT_number 14
_space_group_name_H-M_alt 'P2_1/c'
_space_group_name_Hall '-P 2ybc'
loop_
_symmetry_equiv_pos_site_id
_symmetry_equiv_pos_as_xyz
 1 'x,y,z'
 2 '-x,-y,-z'
 3 '-x,-1/2+y,-1/2-z'
 4 'x,-1/2-y,-1/2+z'
loop_
_atom_site_label
_atom_site_type_symbol
_atom_site_fract_x
_atom_site_fract_y
_atom_site_fract_z
C1    C     0.85879983915995 0.10198839726333 0.24503618414212 
C2    C     0.83121039950494 0.03973671099768 0.35613565545150 
C3    C     0.80212383666149 0.18527339356683 0.22039910957055 
C4    C     0.73590267585730 0.04099716485268 0.44297161475942 
C5    C     0.64595676676620 0.06853316832093 0.41471416665672 
C6    C     0.62689103690977 0.05458120762448 0.29618990575099 
C7    C     0.95113036700034 0.08425976756618 0.15832063621945 
C8    C     0.90419392680410 0.97717394524501 0.38494237630586 
C9    C     0.82930535817008 0.23989070718876 0.11108302044708 
C10   C     0.72986419547669 0.01485321890677 0.56776421396449 
C11   C     0.56965063997933 0.11034218604012 0.51182165408356 
C12   C     0.67372964293542 0.97713445000582 0.20651235302435 
C13   C     0.55194214838809 0.11493900150136 0.26935851792783 
C14   C     0.01695000428687 0.01031513103268 0.18507895634724 
C15   C     0.99503503030900 0.96041348998801 0.29576826541248 
C16   C     0.97752431076191 0.14151184402699 0.04721746676892 
C17   C     0.88908214017335 0.93492244735544 0.50525763615061 
C18   C     0.91650765524483 0.21629041686397 0.02185052206044 
C19   C     0.80778038149177 0.96060761721566 0.59623869321884 
C20   C     0.64741240657120 0.04619983173112 0.66287083653327 
C21   C     0.57344198516661 0.10039353993887 0.63597143204893 
C22   C     0.65943503802584 0.97963814886688 0.08561073427427 
C23   C     0.48929566568250 0.16050769239274 0.48392986696330 
C24   C     0.72552911408003 0.89145455105440 0.23578583329079 
C25   C     0.48483941205620 0.16991967188019 0.36497829105439 
C26   C     0.54041121976735 0.11623113468771 0.14777977082450 
C27   C     0.59549615103890 0.05475629594067 0.05714477881656 
C28   C     0.76585266188285 0.81647303105019 0.14962398845844 
C29   C     0.70354884360747 0.90321843988208 0.99808600504871 
C30   C     0.75673649704610 0.82301793629087 0.02854836337945 
H1    H     0.73611116616306 0.20777121050762 0.28874811540090 
H2    H     0.78285067536709 0.30180964995100 0.09453737307532 
H3    H     0.08582324265866 0.99655790181146 0.11668459910794 
H4    H     0.04678645672278 0.90739469799842 0.31894816140142 
H5    H     0.04704636344210 0.12466842282175 0.98173211650921 
H6    H     0.94692491455204 0.88882891310804 0.52500445041664 
H7    H     0.93570640065298 0.25785605750433 0.93457461600001 
H8    H     0.80120920445402 0.93951019439672 0.69159928116261 
H9    H     0.64633124809990 0.02981024285140 0.75784667314307 
H10   H     0.51378660899805 0.13095922794096 0.70907318753572 
H11   H     0.43182114233997 0.19206985671236 0.55914564756823 
H12   H     0.73221207054392 0.88322816711600 0.32884068895707 
H13   H     0.42569436242625 0.21270064883240 0.34343375177251 
H14   H     0.48583106336594 0.16742174313603 0.12841934134594 
H15   H     0.58653780990359 0.05800248423015 0.96441694639251 
H16   H     0.80460519507467 0.75144471598799 0.17569793766531 
H17   H     0.69211567026671 0.90746092076470 0.90648933575922 
H18   H     0.78996727259105 0.76404524823133 0.96131327017690 
