data_stdin
_audit_creation_method 'critic2'
_audit_creation_date 2023-8-11
_chemical_formula_sum 'C30 H18'
_cell_formula_units_Z 4
_cell_length_a         9.1342109582
_cell_length_b        15.2301128200
_cell_length_c        14.6675163838
_cell_angle_alpha        90.0000
_cell_angle_beta        72.1373
_cell_angle_gamma        90.0000
_cell_volume          1942.110141
_space_group_crystal_system monoclinic
_space_group_IT_number 14
_space_group_name_H-M_alt 'P2_1/c'
_space_group_name_Hall '-P 2ybc'
loop_
_symmetry_equiv_pos_site_id
_symmetry_equiv_pos_as_xyz
 1 'x,y,z'
 2 '-x,-y,-z'
 3 '-x,-1/2+y,-1/2-z'
 4 'x,-1/2-y,-1/2+z'
loop_
_atom_site_label
_atom_site_type_symbol
_atom_site_fract_x
_atom_site_fract_y
_atom_site_fract_z
C1    C     0.94950488578079 0.94660941407659 0.72005438483416 
C2    C     0.04296613943956 0.01323952279799 0.65828696297671 
C3    C     0.79145740652753 0.93375905969230 0.73050749308914 
C4    C     0.98254061657217 0.08553951792695 0.61639315697198 
C5    C     0.82954830684475 0.12362191747329 0.65346645306834 
C6    C     0.73512421872462 0.12478878409232 0.75298568517353 
C7    C     0.02058147371079 0.88532194596772 0.76739256414286 
C8    C     0.20567938357294 0.00429261271720 0.63379322130217 
C9    C     0.70591449406964 0.86935898012781 0.78976728665977 
C10   C     0.08217034518698 0.12301473848941 0.53028779539795 
C11   C     0.76841005685160 0.16546328033228 0.58561683262607 
C12   C     0.79316624578754 0.11482489502258 0.83410615782229 
C13   C     0.57408246190248 0.13903015118706 0.77341274333190 
C14   C     0.18327364278297 0.88605919042118 0.74895158936377 
C15   C     0.27257328249150 0.94197565956965 0.68203655654684 
C16   C     0.92988335372056 0.82140443422589 0.82974101938387 
C17   C     0.30435001084520 0.05584098313334 0.55892637329361 
C18   C     0.77444974690826 0.81397404932428 0.84216860321920 
C19   C     0.24380532736807 0.10855926433641 0.50423554584160 
C20   C     0.02132322589008 0.17564203890316 0.47046455425438 
C21   C     0.86658344601450 0.18939051848083 0.49351160931754 
C22   C     0.68735811006236 0.09849885572629 0.92732765520042 
C23   C     0.60873206197386 0.18537881362676 0.61043206231109 
C24   C     0.95028788585381 0.12493672174969 0.82740693846276 
C25   C     0.51263109611276 0.16682221119703 0.69997755529843 
C26   C     0.47241918656302 0.12649532291796 0.86811340305757 
C27   C     0.52590312600677 0.10260807217286 0.94176210350252 
C28   C     0.00166993657005 0.11027058857353 0.90535544046096 
C29   C     0.74348166022005 0.08249122389399 0.00574420610544 
C30   C     0.89867501135194 0.08661196543980 0.99486025184029 
H1    H     0.73720207847692 0.97380585176180 0.68886657550954 
H2    H     0.58515307432061 0.86068334968468 0.79503521993151 
H3    H     0.23439192166947 0.83875290474377 0.78603346816293 
H4    H     0.39762597303487 0.94013688538667 0.66365173758053 
H5    H     0.98609771602144 0.77714192347193 0.86683782142969 
H6    H     0.42815597760988 0.04950676845421 0.54394112045041 
H7    H     0.70701966835756 0.76427505599884 0.89042154541936 
H8    H     0.31751325473442 0.14264486696515 0.44153508490881 
H9    H     0.09939164589746 0.20098396471871 0.40392648096540 
H10   H     0.81752356937905 0.22302552880264 0.44423377066049 
H11   H     0.56563215271151 0.21400158410321 0.55550970949770 
H12   H     0.03154198567798 0.14605604260554 0.76025800682890 
H13   H     0.38892802596338 0.17673086220010 0.71786941458876 
H14   H     0.34966075103462 0.13528371213416 0.88009045966977 
H15   H     0.44661341616446 0.08961289753972 0.01277412716001 
H16   H     0.12315170582818 0.11795127520821 0.89793225432400 
H17   H     0.66101361331674 0.06787083157038 0.07536084313783 
H18   H     0.94120762373787 0.07401528536593 0.05514840234301 
