data_stdin
_audit_creation_method 'critic2'
_audit_creation_date 2023-8-11
_chemical_formula_sum 'C30 H18'
_cell_formula_units_Z 4
_cell_length_a        14.5980775540
_cell_length_b        16.4181287903
_cell_length_c         8.1759175031
_cell_angle_alpha        89.9996
_cell_angle_beta        81.5733
_cell_angle_gamma        89.9992
_cell_volume          1938.392830
_space_group_crystal_system monoclinic
_space_group_IT_number 14
_space_group_name_H-M_alt 'P2_1/c'
_space_group_name_Hall '-P 2ybc'
loop_
_symmetry_equiv_pos_site_id
_symmetry_equiv_pos_as_xyz
 1 'x,y,z'
 2 '-x,-y,-z'
 3 '-x,-1/2+y,-1/2-z'
 4 'x,-1/2-y,-1/2+z'
loop_
_atom_site_label
_atom_site_type_symbol
_atom_site_fract_x
_atom_site_fract_y
_atom_site_fract_z
C1    C     0.68429622277521 0.09359477204513 0.86666754601000 
C2    C     0.71916458825668 0.11862812126236 0.69866479315496 
C3    C     0.74257758893791 0.07567326403623 0.98612643638540 
C4    C     0.81523875717963 0.11296467109261 0.62399178040010 
C5    C     0.88263945830676 0.05560223899482 0.66961846592658 
C6    C     0.86158096545904 0.97501371778689 0.73637969700039 
C7    C     0.58671687760401 0.09601070336156 0.92296309197759 
C8    C     0.65644164288877 0.15897206048919 0.60776334032979 
C9    C     0.70723144871006 0.05649953163572 0.14755529520437 
C10   C     0.84743644642400 0.17073509462032 0.49777464788016 
C11   C     0.97746062464670 0.08051842800820 0.64434991882376 
C12   C     0.78074550113415 0.92762810284381 0.71128907713814 
C13   C     0.92746466633359 0.93683193272730 0.82307500238182 
C14   C     0.52499910266656 0.12593124336745 0.81667894214072 
C15   C     0.55939733006350 0.15922893207502 0.66718319321344 
C16   C     0.55197107469476 0.07429022955413 0.08794012982811 
C17   C     0.68992603863951 0.20254720748009 0.46061592901275 
C18   C     0.61090237086143 0.05424241204105 0.19905429905405 
C19   C     0.78293839092720 0.21298107826424 0.41439146130247 
C20   C     0.94379120044027 0.18726567943035 0.45806963571004 
C21   C     0.00595511106188 0.14833063491110 0.54086120764901 
C22   C     0.75994418815462 0.85407887039493 0.80391615486467 
C23   C     0.04419541650823 0.03624184554636 0.71926211888768 
C24   C     0.72554541846461 0.94561384486995 0.58704159502248 
C25   C     0.01835954978418 0.96951535746859 0.81478931667504 
C26   C     0.90402706580675 0.86407835358550 0.91540642804636 
C27   C     0.82116671357034 0.82597425704148 0.91286172590425 
C28   C     0.65087665827168 0.89754598377495 0.56250140351130 
C29   C     0.68189106520798 0.80687985907410 0.77936362687168 
C30   C     0.62721990094530 0.82843398569265 0.66195610564165 
H1    H     0.81700606734844 0.07991994395571 0.95189359375654 
H2    H     0.75463841058281 0.04532584434453 0.23616246505054 
H3    H     0.45086995028679 0.12531300286624 0.86121275555519 
H4    H     0.51381090100551 0.18844300713854 0.59056870904403 
H5    H     0.47746777539692 0.07544643945504 0.12666720538799 
H6    H     0.64033634747248 0.23152889384252 0.39200113583877 
H7    H     0.58310252015910 0.03954084651380 0.32658190530242 
H8    H     0.80934361709875 0.25254792333395 0.31145665411106 
H9    H     0.96618014908830 0.23294200270233 0.36386839354505 
H10   H     0.07908083160178 0.16435671265106 0.52043637880534 
H11   H     0.11541259160206 0.05809173960314 0.70183135723532 
H12   H     0.74312290416876 0.99769784581873 0.50698019490071 
H13   H     0.06781519704965 0.93759229538339 0.87913116694902 
H14   H     0.95455000497765 0.83960634569996 0.98796939985802 
H15   H     0.80230362588018 0.77166221715108 0.98685335449916 
H16   H     0.61058258914529 0.91324828159437 0.46489467785550 
H17   H     0.66726485321269 0.75183742188935 0.85302959718905 
H18   H     0.56717340234039 0.79162764099377 0.64544442148706 
