data_stdin
_audit_creation_method 'critic2'
_audit_creation_date 2023-8-11
_chemical_formula_sum 'C30 H18'
_cell_formula_units_Z 8
_cell_length_a        19.0711457400
_cell_length_b         9.6643117949
_cell_length_c        22.0625282500
_cell_angle_alpha        89.9995
_cell_angle_beta        90.0000
_cell_angle_gamma        90.0019
_cell_volume          4066.333520
_space_group_crystal_system orthorhombic
_space_group_IT_number 61
_space_group_name_H-M_alt 'Pbca'
_space_group_name_Hall '-P 2ac 2ab'
loop_
_symmetry_equiv_pos_site_id
_symmetry_equiv_pos_as_xyz
 1 'x,y,z'
 2 '-x,-y,-z'
 3 '-1/2+x,-1/2-y,-z'
 4 '-1/2-x,-1/2+y,z'
 5 '-x,-1/2+y,-1/2-z'
 6 'x,-1/2-y,-1/2+z'
 7 '-1/2-x,-y,-1/2+z'
 8 '-1/2+x,y,-1/2-z'
loop_
_atom_site_label
_atom_site_type_symbol
_atom_site_fract_x
_atom_site_fract_y
_atom_site_fract_z
C1    C     0.66318111793465 0.80973935894936 0.62264822208048 
C2    C     0.65438483973935 0.78685043960265 0.55801246053458 
C3    C     0.66233854014961 0.70161970722626 0.66605083328408 
C4    C     0.62726488909621 0.66094659910110 0.53133522925746 
C5    C     0.58240144076369 0.56143011799144 0.56171802188770 
C6    C     0.53322916743232 0.59263092615858 0.60979100807359 
C7    C     0.67986375210923 0.94590306601867 0.64394858071765 
C8    C     0.67775504569660 0.89349908538590 0.51831384093533 
C9    C     0.67282629093238 0.72701798993153 0.72710821305490 
C10   C     0.64739231576319 0.63013056037109 0.47039518841357 
C11   C     0.58672199316851 0.42115833925013 0.54166537507538 
C12   C     0.50173874597747 0.72740331942460 0.61992834715651 
C13   C     0.51055922484916 0.48178145529630 0.64752494291535 
C14   C     0.69123781892579 0.05553629727783 0.60178171803241 
C15   C     0.69356822298125 0.02809365354256 0.54118304849081 
C16   C     0.68938087483632 0.96959824310593 0.70670899215502 
C17   C     0.68668276380907 0.86624933570864 0.45540191000275 
C18   C     0.68540672503177 0.86249389863396 0.74794680326972 
C19   C     0.67635033997361 0.73586402655093 0.43311847638893 
C20   C     0.64045656520497 0.49318984228277 0.44756779874747 
C21   C     0.61727915197483 0.38941212910558 0.48450863016212 
C22   C     0.46137312687254 0.75072944681904 0.67374803556491 
C23   C     0.55906266053090 0.31280193226475 0.57824435899739 
C24   C     0.50267208526726 0.83500716380930 0.57629074153001 
C25   C     0.52621655532480 0.34223664527800 0.63176601991447 
C26   C     0.47025978249948 0.50874336272993 0.70070889876861 
C27   C     0.44903128350713 0.63963146628468 0.71487379844197 
C28   C     0.47048170337883 0.96088684802989 0.58675754698236 
C29   C     0.43048279023633 0.88193817182011 0.68425016778626 
C30   C     0.43566350124934 0.98654793966652 0.64196013296096 
H1    H     0.65556725287456 0.59557958395467 0.65104963886365 
H2    H     0.67232820639344 0.64078283313698 0.75891969440574 
H3    H     0.70201513180146 0.15906085299621 0.61883826725988 
H4    H     0.70795632252520 0.10874187370418 0.50901661972155 
H5    H     0.70176203297514 0.07421553217920 0.72159918854790 
H6    H     0.70497742207809 0.94984605772212 0.42636624696619 
H7    H     0.69310910009217 0.88271318626413 0.79603412361393 
H8    H     0.68883777298679 0.71110151251553 0.38616786957005 
H9    H     0.65659999756446 0.47156092322673 0.40115189558181 
H10   H     0.61748305485690 0.28226113641225 0.46939012656044 
H11   H     0.56643491988254 0.20629005408343 0.56351655942088 
H12   H     0.52742249351666 0.81639624268247 0.53278697109738 
H13   H     0.50800133735791 0.25960248472337 0.66142973455531 
H14   H     0.45662203705080 0.42217880218956 0.72999914210256 
H15   H     0.41923758520847 0.65941440266714 0.75609491768545 
H16   H     0.47080283795693 0.04016549908256 0.55173831137522 
H17   H     0.40156101899960 0.89769928251569 0.72632305308280 
H18   H     0.41160541175563 0.08693899252455 0.65014741253509 
