data_stdin
_audit_creation_method 'critic2'
_audit_creation_date 2023-8-11
_chemical_formula_sum 'C30 H18'
_cell_formula_units_Z 4
_cell_length_a         9.1351571300
_cell_length_b        12.8387672800
_cell_length_c        18.0973533857
_cell_angle_alpha        90.0000
_cell_angle_beta        67.8012
_cell_angle_gamma        90.0000
_cell_volume          1965.207287
_space_group_crystal_system monoclinic
_space_group_IT_number 14
_space_group_name_H-M_alt 'P2_1/c'
_space_group_name_Hall '-P 2ybc'
loop_
_symmetry_equiv_pos_site_id
_symmetry_equiv_pos_as_xyz
 1 'x,y,z'
 2 '-x,-y,-z'
 3 '-x,-1/2+y,-1/2-z'
 4 'x,-1/2-y,-1/2+z'
loop_
_atom_site_label
_atom_site_type_symbol
_atom_site_fract_x
_atom_site_fract_y
_atom_site_fract_z
C1    C     0.06221601821516 0.61530590030618 0.72289047176747 
C2    C     0.93329591353366 0.66478997985381 0.78715987869626 
C3    C     0.21576533343629 0.60242812607731 0.72361152137217 
C4    C     0.95142436856562 0.72527906956472 0.85066676273538 
C5    C     0.09383400741573 0.77976039014207 0.84608256833485 
C6    C     0.21156205309882 0.82318087979481 0.77434122974771 
C7    C     0.03116327745116 0.56669456079749 0.65900722124919 
C8    C     0.77710924715093 0.64586219264028 0.79096351923487 
C9    C     0.33388622703601 0.55087671090986 0.66297565035990 
C10   C     0.81897616805191 0.73076539206988 0.92480486352428 
C11   C     0.11768342828817 0.79311802551781 0.91917957066860 
C12   C     0.18159242647709 0.85519243029188 0.70432778957016 
C13   C     0.36480311164488 0.84288611459674 0.77447820891250 
C14   C     0.87437355133897 0.56483656044923 0.65995053495476 
C15   C     0.75138020709784 0.60029249721572 0.72503282163232 
C16   C     0.15416852272429 0.51470073089477 0.59737675358717 
C17   C     0.64438128275591 0.66916701954876 0.86158640473180 
C18   C     0.30398257497780 0.50731620445434 0.59859056408125 
C19   C     0.66533727938346 0.70470848428727 0.92805580207972 
C20   C     0.84084251495602 0.76010027092849 0.99581200887702 
C21   C     0.98921024463979 0.78078833381334 0.99368419285117 
C22   C     0.31192435780000 0.88469602224720 0.63337705238229 
C23   C     0.26941555408341 0.82097940166109 0.91789987882417 
C24   C     0.02768498531263 0.86958890637506 0.70452298368163 
C25   C     0.39194952083528 0.83835948781187 0.84682554913657 
C26   C     0.49193946485556 0.87226358933716 0.70271660770818 
C27   C     0.46776771510431 0.88894345601173 0.63371820834167 
C28   C     0.00395633779149 0.90340143808666 0.63737765469304 
C29   C     0.28446635816636 0.91650616005655 0.56478077235696 
C30   C     0.13296005555572 0.92481534685491 0.56605118839120 
H1    H     0.24084754905805 0.63116985823331 0.77394047292099 
H2    H     0.45021742990902 0.54228323979904 0.66585675852502 
H3    H     0.85387364615846 0.52874197280829 0.61024670677305 
H4    H     0.62988634154771 0.59223599191492 0.72910531693591 
H5    H     0.12675084716233 0.47745435427925 0.55004340600140 
H6    H     0.52661575459471 0.65311373412131 0.86264883889145 
H7    H     0.39638613571737 0.46507114038263 0.55169663802266 
H8    H     0.56502901979705 0.71590953888615 0.98407433697124 
H9    H     0.73883322937193 0.76052683316287 0.05208984114685 
H10   H     0.01028874907417 0.79287044306613 0.04830257544157 
H11   H     0.28557436605953 0.82608954011934 0.97443927103536 
H12   H     0.92571284385935 0.85757447517440 0.75929514609352 
H13   H     0.51055337060233 0.85384781793762 0.84470527287254 
H14   H     0.60876849884283 0.88193628701894 0.70493466758882 
H15   H     0.56545483732139 0.91115194924706 0.57913630112561 
H16   H     0.88393056512146 0.91510223696303 0.64018107418620 
H17   H     0.38588572720903 0.93696700727100 0.51128148248239 
H18   H     0.11309059039954 0.94977840237274 0.51308795351849 
