data_stdin
_audit_creation_method 'critic2'
_audit_creation_date 2023-8-11
_chemical_formula_sum 'C30 H18'
_cell_formula_units_Z 4
_cell_length_a         8.9713678385
_cell_length_b        17.4003394100
_cell_length_c        12.6329291065
_cell_angle_alpha        89.9999
_cell_angle_beta        83.3083
_cell_angle_gamma        90.0012
_cell_volume          1958.626729
_space_group_crystal_system monoclinic
_space_group_IT_number 9
_space_group_name_H-M_alt 'Cc'
_space_group_name_Hall 'C -2yc'
loop_
_symmetry_equiv_pos_site_id
_symmetry_equiv_pos_as_xyz
 1 'x,y,z'
 2 'x,-y,-1/2+z'
 3 '-1/2+x,-1/2+y,z'
 4 '-1/2+x,-1/2-y,-1/2+z'
loop_
_atom_site_label
_atom_site_type_symbol
_atom_site_fract_x
_atom_site_fract_y
_atom_site_fract_z
C1    C     0.99744711820022 0.45904457622540 0.99777577890164 
C2    C     0.91918607873732 0.52455919609421 0.95933562199158 
C3    C     0.15103735080672 0.46097647197461 0.01379492476684 
C4    C     0.99217778509911 0.59079080075601 0.90716803369285 
C5    C     0.14251805223954 0.59139300581572 0.85067978689420 
C6    C     0.21758740660433 0.52573793005308 0.79845585219269 
C7    C     0.91408993438405 0.39149980480395 0.03181240323982 
C8    C     0.75996197544573 0.52544269043763 0.98056235934314 
C9    C     0.22091068020070 0.39840320406631 0.05390462641879 
C10   C     0.91122540030872 0.66160599670377 0.91252306718071 
C11   C     0.22123411092780 0.66285603254679 0.84537183122475 
C12   C     0.14133973809870 0.45966664659224 0.75969113817257 
C13   C     0.37678689011958 0.52786420530647 0.77740212046805 
C14   C     0.75451528391079 0.39117998653127 0.03460704894240 
C15   C     0.68022749794047 0.45709401215320 0.01461761165369 
C16   C     0.98922337714912 0.32746298274992 0.07000849575253 
C17   C     0.67887637596415 0.59477114042247 0.96995430037335 
C18   C     0.14044218501942 0.33037688515700 0.08068092615538 
C19   C     0.75334570638470 0.66177427543782 0.94264795300738 
C20   C     0.98870828427358 0.73238679444459 0.89058267699662 
C21   C     0.14144747750570 0.73301176263098 0.86702610365179 
C22   C     0.22675261439710 0.39279667239195 0.72552178187469 
C23   C     0.37912365107374 0.66429098571613 0.81538291051136 
C24   C     0.98781356116393 0.46049164805199 0.74334773961323 
C25   C     0.45568513338831 0.59787932595236 0.78807451197381 
C26   C     0.45861438721388 0.46010725331272 0.74340738956858 
C27   C     0.38627495430788 0.39364096165360 0.72314501384988 
C28   C     0.91997619486518 0.39753871977767 0.70252119246491 
C29   C     0.15368145985834 0.32831664244418 0.68666124770823 
C30   C     0.00256695786272 0.33019029081886 0.67542703274375 
H1    H     0.21392345550471 0.51386771102304 0.99860284538933 
H2    H     0.33781167846452 0.40254551906634 0.06841755711461 
H3    H     0.69279257016316 0.33882428480875 0.05828451875012 
H4    H     0.55806444206475 0.45917188963899 0.02400003412732 
H5    H     0.92408355356767 0.27623577247726 0.09390107498336 
H6    H     0.55723809479042 0.59389565509727 0.98804687461923 
H7    H     0.19580834521504 0.28155610722845 0.11314138339438 
H8    H     0.69313754882692 0.71603044551177 0.94105566701502 
H9    H     0.92470038499834 0.78575631424378 0.89818257293519 
H10   H     0.20373281803552 0.78690603672356 0.85923210278993 
H11   H     0.43762549697380 0.71904704152020 0.81693931347424 
H12   H     0.92335480626027 0.51287491113360 0.75880086998924 
H13   H     0.57733001300424 0.59797920636051 0.76998011816036 
H14   H     0.58072701462662 0.46308273173316 0.73420111187009 
H15   H     0.44951951534973 0.34173964638178 0.69944648886970 
H16   H     0.80307123449003 0.40088865546056 0.68770316307067 
H17   H     0.22038636016911 0.27762021257828 0.66265660741375 
H18   H     0.94892630779773 0.28108434999199 0.64227999927884 
