data_stdin
_audit_creation_method 'critic2'
_audit_creation_date 2023-8-11
_chemical_formula_sum 'C30 H18'
_cell_formula_units_Z 4
_cell_length_a         9.0489243936
_cell_length_b        16.7319979300
_cell_length_c        15.6530887496
_cell_angle_alpha        89.9998
_cell_angle_beta        57.4173
_cell_angle_gamma        90.0013
_cell_volume          1996.980404
_space_group_crystal_system monoclinic
_space_group_IT_number 14
_space_group_name_H-M_alt 'P2_1/c'
_space_group_name_Hall '-P 2ybc'
loop_
_symmetry_equiv_pos_site_id
_symmetry_equiv_pos_as_xyz
 1 'x,y,z'
 2 '-x,-y,-z'
 3 '-x,-1/2+y,-1/2-z'
 4 'x,-1/2-y,-1/2+z'
loop_
_atom_site_label
_atom_site_type_symbol
_atom_site_fract_x
_atom_site_fract_y
_atom_site_fract_z
C1    C     0.16477469027792 0.11604385733579 0.18369899062031 
C2    C     0.12984775845372 0.13614139361134 0.28313684560703 
C3    C     0.03341295194441 0.11495865716060 0.16049475027958 
C4    C     0.95684907644191 0.13918741157733 0.37460495998257 
C5    C     0.80525328181694 0.09595179440030 0.39065690927508 
C6    C     0.81264124363479 0.02069000289765 0.34359067539197 
C7    C     0.34180597317405 0.10175725410891 0.10215842128830 
C8    C     0.27472581504324 0.15812025297614 0.29021550022449 
C9    C     0.07112985851874 0.09316106117019 0.06553956384172 
C10   C     0.93171069693587 0.18943917150696 0.45501113341055 
C11   C     0.63675099627203 0.13003744326592 0.45847625245386 
C12   C     0.95350017139888 0.96324845270490 0.30924579031922 
C13   C     0.66861287647912 0.99977166782723 0.33533777234824 
C14   C     0.48191729208365 0.11220497119654 0.11801167341113 
C15   C     0.44947292044714 0.14241252386670 0.20761023427810 
C16   C     0.37748964421690 0.08010064866085 0.00527804000769 
C17   C     0.24569863513507 0.19679982002709 0.37913324050773 
C18   C     0.24404301124420 0.07384006523824 0.98756672781100 
C19   C     0.07959314440664 0.21639075917412 0.45647584621150 
C20   C     0.75901970167209 0.21385382520644 0.53153508081385 
C21   C     0.61741196146880 0.19045287668532 0.52796078310343 
C22   C     0.96496582381797 0.89763992905572 0.24724706633341 
C23   C     0.48945922627422 0.10250329124169 0.45676599369306 
C24   C     0.07286154322729 0.96451038339092 0.34142549152144 
C25   C     0.50864374026117 0.04348563774401 0.39095016726621 
C26   C     0.68328048093206 0.93321450635810 0.27414681495744 
C27   C     0.82961866879616 0.88605540814073 0.22761370391430 
C28   C     0.20478323757514 0.90830188758410 0.30764940139160 
C29   C     0.10461815880834 0.84217772507896 0.21105915022172 
C30   C     0.22455240120034 0.84785093652314 0.23956668135537 
H1    H     0.90060374053823 0.13254622151867 0.21808798232957 
H2    H     0.96682971347201 0.09183158952461 0.05040727882110 
H3    H     0.61510992479135 0.09910206769850 0.05561392817254 
H4    H     0.55639419451500 0.15447270536936 0.21872619705790 
H5    H     0.51299370895388 0.06903366434581 0.94449709184481 
H6    H     0.35888417921595 0.21418221925450 0.38199753878683 
H7    H     0.27205701627769 0.05617224683709 0.91334374439871 
H8    H     0.05804884851423 0.25162179611531 0.52072474982953 
H9    H     0.74330700334962 0.25450701129689 0.59015336158586 
H10   H     0.48742413386733 0.21470989000175 0.58089690165237 
H11   H     0.36210073708434 0.12991251124169 0.50790421184972 
H12   H     0.05785649491793 0.00924455551393 0.39584159869455 
H13   H     0.39854407035407 0.02578099695824 0.38517475218717 
H14   H     0.57383320061829 0.92055984055401 0.26561807093444 
H15   H     0.84045479080482 0.83627873073500 0.17970439954049 
H16   H     0.29071523219816 0.90956405335371 0.33633588754897 
H17   H     0.11319908917396 0.79372901848996 0.16215046948595 
H18   H     0.33084777485600 0.80457912046384 0.21167665721527 
