data_stdin
_audit_creation_method 'critic2'
_audit_creation_date 2023-8-11
_chemical_formula_sum 'C30 H18'
_cell_formula_units_Z 4
_cell_length_a        11.5494937406
_cell_length_b        14.0997903701
_cell_length_c        14.6246234301
_cell_angle_alpha        90.0002
_cell_angle_beta        55.6507
_cell_angle_gamma        90.0006
_cell_volume          1966.242567
_space_group_crystal_system monoclinic
_space_group_IT_number 14
_space_group_name_H-M_alt 'P2_1/c'
_space_group_name_Hall '-P 2ybc'
loop_
_symmetry_equiv_pos_site_id
_symmetry_equiv_pos_as_xyz
 1 'x,y,z'
 2 '-x,-y,-z'
 3 '-x,-1/2+y,-1/2-z'
 4 'x,-1/2-y,-1/2+z'
loop_
_atom_site_label
_atom_site_type_symbol
_atom_site_fract_x
_atom_site_fract_y
_atom_site_fract_z
C1    C     0.42967125878173 0.82397980786269 0.00325994837975 
C2    C     0.29897773808725 0.87314738013987 0.08047460801552 
C3    C     0.45405569327092 0.77217773900330 0.91102654740947 
C4    C     0.16748689636207 0.85745961197498 0.09120834392344 
C5    C     0.12442750360099 0.77063334713037 0.06437948424261 
C6    C     0.17483958859043 0.67600304760097 0.06264074707403 
C7    C     0.54586303770898 0.83465485366980 0.01282818351776 
C8    C     0.30284052833869 0.94577858293214 0.14641691818389 
C9    C     0.58180355917704 0.72973036638543 0.83581388771106 
C10   C     0.07018945369775 0.93470170648271 0.13296502326891 
C11   C     0.02130354141524 0.77867489669750 0.03953947707344 
C12   C     0.23343538827099 0.64788686436103 0.12391575949705 
C13   C     0.16001986833907 0.60422276104751 0.00141654573915 
C14   C     0.53583065855676 0.89841342849177 0.09265713429357 
C15   C     0.42061732542861 0.95484263813373 0.15349738055387 
C16   C     0.67358344333657 0.78717861037137 0.93757868113809 
C17   C     0.19126494999298 0.01242685967468 0.20362062027239 
C18   C     0.69235709579302 0.73502920793993 0.85026661165663 
C19   C     0.08368528605707 0.01111625591181 0.18997012984697 
C20   C     0.95902437605171 0.93647032011364 0.11765941280537 
C21   C     0.94245894321661 0.86356050743084 0.06448716223450 
C22   C     0.30192923695115 0.55789753399949 0.10185925445475 
C23   C     0.99835433659446 0.70210442345504 0.98805422727195 
C24   C     0.21655825425295 0.70188485380490 0.21224201293787 
C25   C     0.07390756363593 0.62011841361672 0.96168894987932 
C26   C     0.22660543152319 0.51424349598192 0.98318767724343 
C27   C     0.29961537930481 0.49283356405946 0.02821902614211 
C28   C     0.27772981108341 0.67463687236060 0.26640415343367 
C29   C     0.36523979914781 0.53201254314946 0.15765868130718 
C30   C     0.35675216569094 0.59057128069765 0.23695046851736 
H1    H     0.37148160856237 0.76704652230363 0.89726044384602 
H2    H     0.59664483484112 0.69257841746457 0.76460487966436 
H3    H     0.62528625932537 0.90586558420239 0.09863977568424 
H4    H     0.41618503902808 0.00914157810251 0.20838313467355 
H5    H     0.75993129467563 0.79617810179848 0.94712124363996 
H6    H     0.19846350237442 0.06822428479929 0.25172148363833 
H7    H     0.79204565501592 0.70039343340673 0.79162526782996 
H8    H     0.00426578552257 0.06655912334408 0.22482668212499 
H9    H     0.89157677405538 0.99862904572692 0.14521585058032 
H10   H     0.86567097349481 0.86800405129253 0.04370661248420 
H11   H     0.92314585888086 0.71166975448372 0.96623542063144 
H12   H     0.15282838552901 0.76556671085931 0.23964326273217 
H13   H     0.06397302707885 0.56429034843954 0.91509281988666 
H14   H     0.21674283063237 0.46250093128989 0.93261786828822 
H15   H     0.35200593317608 0.42471381381796 0.01248980544935 
H16   H     0.26167863035831 0.71858902841198 0.33354971295662 
H17   H     0.41893029420912 0.46401644862885 0.13762831071651 
H18   H     0.40592630504766 0.57068012717853 0.27947200061981 
