data_stdin
_audit_creation_method 'critic2'
_audit_creation_date 2023-8-11
_chemical_formula_sum 'C30 H18'
_cell_formula_units_Z 2
_cell_length_a        11.7659193201
_cell_length_b        16.6439093169
_cell_length_c         8.4861798830
_cell_angle_alpha        92.6707
_cell_angle_beta        66.0614
_cell_angle_gamma        46.7444
_cell_volume           965.744679
_space_group_crystal_system triclinic
_space_group_IT_number 2
_space_group_name_H-M_alt 'P-1'
_space_group_name_Hall '-P 1'
loop_
_symmetry_equiv_pos_site_id
_symmetry_equiv_pos_as_xyz
 1 'x,y,z'
 2 '-x,-y,-z'
loop_
_atom_site_label
_atom_site_type_symbol
_atom_site_fract_x
_atom_site_fract_y
_atom_site_fract_z
C1    C     0.86564949146055 0.35900920585310 0.12657774607979 
C2    C     0.81016390236731 0.36814306376957 0.31959467348335 
C3    C     0.91462036438034 0.27466369128145 0.97935002928740 
C4    C     0.84462306080800 0.27479621907117 0.37015302367309 
C5    C     0.99999059732979 0.14084420297223 0.23353360984318 
C6    C     0.18181322486051 0.07013505903585 0.04673835225156 
C7    C     0.85278452086857 0.44662181367742 0.08644023917119 
C8    C     0.70547936765091 0.48045239019669 0.47311758147779 
C9    C     0.95937634666521 0.27141279534833 0.79949379101215 
C10   C     0.71445685810295 0.31860074745683 0.57243422908318 
C11   C     0.97248470773275 0.07248122282342 0.28778366750929 
C12   C     0.27181239820514 0.10412451303470 0.00136968930170 
C13   C     0.28290921270673 0.95701453023552 0.89975875102726 
C14   C     0.77763067464571 0.54537948795815 0.23858581057539 
C15   C     0.70011589095419 0.56378044358152 0.42654851797623 
C16   C     0.90376078398745 0.43960079066130 0.89927634563443 
C17   C     0.60090439090918 0.51248495708052 0.67439781393402 
C18   C     0.95810309998716 0.35276463527894 0.75668508582115 
C19   C     0.59268298147067 0.43862549996107 0.72224626615414 
C20   C     0.70698182736291 0.24189940832996 0.62628412499005 
C21   C     0.82317289382513 0.12582544596734 0.48567188308891 
C22   C     0.42982611991465 0.04215185504184 0.80159451591393 
C23   C     0.09329842132052 0.95097074011007 0.14358307457950 
C24   C     0.22092982051546 0.18985292764873 0.14806768893134 
C25   C     0.23310762754611 0.90001138029509 0.95145074843098 
C26   C     0.43931279188128 0.89805064064250 0.70157967707093 
C27   C     0.50644266366773 0.94142082298556 0.65232712015148 
C28   C     0.30700113266301 0.22202721968810 0.09976362155942 
C29   C     0.51435109331092 0.07769604207056 0.75512186909682 
C30   C     0.45210534035314 0.16779469307437 0.90105718955598 
H1    H     0.91197127528305 0.21333689841049 0.01095319298724 
H2    H     0.99199099077465 0.20745031267695 0.69125634394712 
H3    H     0.77316082255354 0.60945049803262 0.20443062417804 
H4    H     0.63090593809533 0.64353094046880 0.54681654033788 
H5    H     0.89498245919986 0.50645816077324 0.87193035145873 
H6    H     0.51869316555155 0.60037214610548 0.78910619593978 
H7    H     0.99398160194051 0.34966478381049 0.61467882069129 
H8    H     0.49730781322058 0.46842569116040 0.87519656927727 
H9    H     0.60159563819043 0.28029066394868 0.78113846761891 
H10   H     0.81007238670245 0.06968961833977 0.52359668768424 
H11   H     0.06459338282714 0.90319277902829 0.18869955880735 
H12   H     0.11488802127141 0.22896594798182 0.30234410061247 
H13   H     0.31254473309625 0.81337472859031 0.83655890799610 
H14   H     0.50444086091676 0.81717713626572 0.58889843715805 
H15   H     0.62495941578358 0.89600212683559 0.50034161052943 
H16   H     0.26563500187806 0.28732679225242 0.21672843390002 
H17   H     0.63215743555548 0.03050311790529 0.60124150275501 
H18   H     0.51989611107596 0.19313735589047 0.86410487970451 
