data_stdin
_audit_creation_method 'critic2'
_audit_creation_date 2023-8-11
_chemical_formula_sum 'C30 H18'
_cell_formula_units_Z 6
_cell_length_a         9.6955263466
_cell_length_b         9.6944967970
_cell_length_c        37.1933974576
_cell_angle_alpha        90.0270
_cell_angle_beta        89.9989
_cell_angle_gamma       120.0027
_cell_volume          3027.480986
_space_group_crystal_system monoclinic
_space_group_IT_number 5
_space_group_name_H-M_alt 'C2'
_space_group_name_Hall 'C 2y'
loop_
_symmetry_equiv_pos_site_id
_symmetry_equiv_pos_as_xyz
 1 'x,y,z'
 2 'x-y,-y,-2/3-z'
loop_
_atom_site_label
_atom_site_type_symbol
_atom_site_fract_x
_atom_site_fract_y
_atom_site_fract_z
C1    C     0.52331875405122 0.57373025085528 0.28908707979352 
C2    C     0.42626396238404 0.94973100751448 0.95572682994061 
C3    C     0.05046243761721 0.47663816186049 0.62241686210924 
C4    C     0.65293909428648 0.55435224356326 0.27546028153678 
C5    C     0.44565801229342 0.09872789876488 0.94209896644293 
C6    C     0.90144175458257 0.34698451580591 0.60878642268707 
C7    C     0.36950157235711 0.44387600708528 0.29649862143054 
C8    C     0.55608535514577 0.92570742415190 0.96313416404412 
C9    C     0.07449260754575 0.63051184711851 0.62982875857029 
C10   C     0.63272389575886 0.41089668432501 0.25856759411043 
C11   C     0.58908234863151 0.22191919768497 0.92521692807676 
C12   C     0.77822658630082 0.36718345045457 0.59189937414703 
C13   C     0.48773150805359 0.28906658991516 0.24146479801061 
C14   C     0.71085172076855 0.19869133271433 0.90812009237405 
C15   C     0.80141782768912 0.51215328904889 0.57480402317581 
C16   C     0.36626043469568 0.31428599414323 0.22529536784393 
C17   C     0.68558180142863 0.05194103139646 0.89194782337703 
C18   C     0.94810820124204 0.63359188385856 0.55863434983777 
C19   C     0.55315872782922 0.72970627741476 0.29822934053047 
C20   C     0.27032203373589 0.82367103769686 0.96488019141284 
C21   C     0.17655055040974 0.44678295657570 0.63156293491706 
C22   C     0.81074346037235 0.68353905897289 0.28059465926993 
C23   C     0.31652798505495 0.12741700000701 0.94722675833549 
C24   C     0.87277333801278 0.18916712128593 0.61391397227217 
C25   C     0.24904603538674 0.46741585712525 0.30937115587527 
C26   C     0.53253782435676 0.78172899322690 0.97601357973105 
C27   C     0.21850479782353 0.75099542109686 0.64270442528269 
C28   C     0.76523772195315 0.38490453743139 0.25942760968655 
C29   C     0.61510803292265 0.38045639407352 0.92608267921890 
C30   C     0.61970715013565 0.23467020570658 0.59275919487521 
C31   C     0.46363413275688 0.13107553342320 0.24061418988757 
C32   C     0.86883021229368 0.33257858987163 0.90727467637649 
C33   C     0.66754510879639 0.53625665735223 0.57395803756472 
C34   C     0.39167204508114 0.46652676289508 0.21214897232869 
C35   C     0.53331885321955 0.92508386447105 0.87879539948205 
C36   C     0.07492765427046 0.60815101936116 0.54548795611302 
C37   C     0.21140268798344 0.17931985859523 0.22069791057210 
C38   C     0.82050877350667 0.03200917478636 0.88735340174595 
C39   C     0.96800941018598 0.78844684183915 0.55403610480840 
C40   C     0.71230681971986 0.86118701785718 0.29769548409229 
C41   C     0.13888996769310 0.85140154207633 0.96434390964156 
C42   C     0.14882792240292 0.28760501130506 0.63102322013418 
C43   C     0.83699275577046 0.83673472164215 0.29107362868938 
C44   C     0.16336530893667 0.00054045087190 0.95770810717902 
C45   C     0.99967799881787 0.16290971696584 0.62439304568519 
C46   C     0.42611910070793 0.75119993339058 0.30989183454198 
C47   C     0.24881040471143 0.67515091094631 0.97655574757827 
C48   C     0.32510414405431 0.57384582691628 0.64322993557384 
C49   C     0.94356910108246 0.66065986645298 0.27558984918040 
C50   C     0.33942822344778 0.28313738112595 0.94222265243545 
C51   C     0.71705386929120 0.05632656945819 0.60890468421120 
C52   C     0.27572408605019 0.62245400522197 0.31519584758293 
C53   C     0.37751616761520 0.65343454324539 0.98185305599678 
C54   C     0.34682267369639 0.72429335671574 0.64853111692295 
C55   C     0.92042321065615 0.51300274470899 0.26740285099646 
C56   C     0.48706699379553 0.40761208973071 0.93404909494656 
C57   C     0.59257393295648 0.07947856052701 0.60072410806589 
C58   C     0.74197920149452 0.22960669511439 0.25351948221617 
C59   C     0.77038316372121 0.51247383408477 0.92018409862452 
C60   C     0.48769302464582 0.25793423976337 0.58686307802986 
C61   C     0.59285086207367 0.10409354291590 0.24727047050746 
C62   C     0.89585200933762 0.48881603265712 0.91393621820554 
C63   C     0.51134355661337 0.40706465716759 0.58061960436957 
C64   C     0.25667252862112 0.48269680125094 0.20326853700930 
C65   C     0.51709659853027 0.77385836818769 0.86991850764791 
C66   C     0.22609198780274 0.74314517130179 0.53660432362389 
C67   C     0.31058255517345 0.99921544933938 0.23269068100746 
C68   C     0.00064159122006 0.31134744658992 0.89934816044817 
C69   C     0.68874594346631 0.68928807236553 0.56603093480225 
C70   C     0.54422370077847 0.59890139680688 0.20514546839249 
C71   C     0.40096843707653 0.94528907897010 0.87178123270274 
C72   C     0.05474438946672 0.45556463055578 0.53848643714404 
C73   C     0.18571943525631 0.02236852480846 0.22508490286772 
C74   C     0.97746031415282 0.16329152706752 0.89174047614689 
C75   C     0.83675746088620 0.81414061714865 0.55842170606251 
C76   C     0.07977861336650 0.20025059474026 0.21181561928789 
C77   C     0.79953184337372 0.87940293824273 0.87847201990200 
C78   C     0.12055433704506 0.92006251597921 0.54514908340137 
C79   C     0.10029725314810 0.34783725173214 0.20532380521931 
C80   C     0.65193287733334 0.75231601770707 0.87197984595316 
C81   C     0.24761290597127 0.89953760120122 0.53865576823133 
C82   C     0.56276113475525 0.74101677777310 0.19219277764793 
C83   C     0.25882338021134 0.82168792002044 0.85882289334143 
C84   C     0.17830940649362 0.43699211686812 0.52553444407809 
C85   C     0.27855336821156 0.62965904651804 0.19035681309420 
C86   C     0.37009771437268 0.64874626097581 0.85700558103912 
C87   C     0.35116418356007 0.72123137087015 0.52369449680265 
C88   C     0.42942290262382 0.75777957657941 0.18498619588782 
C89   C     0.24200019383378 0.67152386546119 0.85162814825537 
C90   C     0.32840957633078 0.57033058398645 0.51832964484252 
H1    H     0.34678089947396 0.32317665425233 0.29289306861079 
H2    H     0.67677670373914 0.02363906422149 0.95952489680355 
H3    H     0.97655389327341 0.65326389972054 0.62622268277734 
H4    H     0.13273574161523 0.36469973879169 0.31527165746723 
H5    H     0.63524047897074 0.76809902240379 0.98190596029502 
H6    H     0.23214783799886 0.86735329671145 0.64860181554893 
H7    H     0.73200760193986 0.97892389258670 0.30455818961319 
H8    H     0.02117936313870 0.75341846963362 0.97121519822723 
H9    H     0.24683183855344 0.26789642026059 0.63788771660172 
H10   H     0.95969276400164 0.93407095790346 0.29322631745199 
H11   H     0.06607590769031 0.02596320751914 0.95985620696342 
H12   H     0.97426775634325 0.04019245719981 0.62653865249264 
H13   H     0.45072695065747 0.87138519662402 0.31584512785421 
H14   H     0.12864387563632 0.57964131947548 0.98252035571831 
H15   H     0.42063748564225 0.54921221196969 0.64918692162162 
H16   H     0.06282026611618 0.76093921026188 0.28016741398643 
H17   H     0.23918673151178 0.30215424882898 0.94679385392288 
H18   H     0.69804809895327 0.93706917449256 0.61347762534594 
H19   H     0.18017678705563 0.64021881998411 0.32511254225764 
H20   H     0.35974322111564 0.54013543346637 0.99177697960667 
H21   H     0.46014949871630 0.81986587877908 0.65844914398791 
H22   H     0.02043046181689 0.49160912442053 0.26629657990164 
H23   H     0.50848461312502 0.52903247567431 0.93294620908806 
H24   H     0.47116097306361 0.97947161026211 0.59961728825745 
H25   H     0.84429069567124 0.21234751690071 0.25586775065283 
H26   H     0.78766318066418 0.63206867541474 0.92253488324204 
H27   H     0.36811617149387 0.15562925786018 0.58921533779271 
H28   H     0.57118349275436 0.98265979468162 0.24571504029573 
H29   H     0.01727155562162 0.58857548552236 0.91238415917267 
H30   H     0.41159987140541 0.42874331216928 0.57907096895638 
H31   H     0.29515552753890 0.88002457680044 0.23357916831133 
H32   H     0.11982526431966 0.41511610352250 0.90023590247153 
H33   H     0.58498946763708 0.70470919112429 0.56691781160213 
H34   H     0.64922660822819 0.58777783257293 0.20888124918565 
H35   H     0.41214744565582 0.06146133161726 0.87550983832920 
H36   H     0.93861479627739 0.35056150944960 0.54221973780820 
H37   H     0.06641440617288 0.92163871632232 0.22075171266094 
H38   H     0.07816407285781 0.14469581786213 0.88740611189370 
H39   H     0.85533618185427 0.93343666731888 0.55408571575413 
H40   H     0.96152593587391 0.09460408294181 0.21089699248741 
H41   H     0.90515285007361 0.86676700759138 0.87755527454020 
H42   H     0.13316539920377 0.03831983737612 0.54422760957904 
H43   H     0.99917164747952 0.36374508913084 0.19957915618729 
H44   H     0.63599829038892 0.63524900432985 0.86623513983083 
H45   H     0.36463717954350 0.00066343038885 0.53290631670496 
H46   H     0.68214101881362 0.83932593771556 0.18670318129430 
H47   H     0.16053367965401 0.84277988619735 0.85332376215245 
H48   H     0.15723112941524 0.31758321801750 0.52004600418026 
H49   H     0.17362218482608 0.63818738565866 0.18366061580434 
H50   H     0.36151929625974 0.53523808211534 0.85031320728969 
H51   H     0.46462105764037 0.82615229827996 0.51699465341914 
H52   H     0.44450983240808 0.86900300771425 0.17433788859772 
H53   H     0.13074855791634 0.57536035216710 0.84097901033049 
H54   H     0.42453709957961 0.55521761347056 0.50768183696745 
