data_stdin
_audit_creation_method 'critic2'
_audit_creation_date 2023-8-11
_chemical_formula_sum 'C30 H18'
_cell_formula_units_Z 8
_cell_length_a        17.3218926086
_cell_length_b         9.3630964914
_cell_length_c        24.2174093831
_cell_angle_alpha        90.0004
_cell_angle_beta        91.7201
_cell_angle_gamma        90.0000
_cell_volume          3925.968287
_space_group_crystal_system monoclinic
_space_group_IT_number 15
_space_group_name_H-M_alt 'C2/c'
_space_group_name_Hall '-C 2yc'
loop_
_symmetry_equiv_pos_site_id
_symmetry_equiv_pos_as_xyz
 1 'x,y,z'
 2 '-1/2-x,-1/2-y,-z'
 3 '-1/2-x,-1/2+y,-1/2-z'
 4 'x,-y,-1/2+z'
 5 '-1/2+x,-1/2+y,z'
 6 '-x,-y,-z'
 7 '-x,y,-1/2-z'
 8 '-1/2+x,-1/2-y,-1/2+z'
loop_
_atom_site_label
_atom_site_type_symbol
_atom_site_fract_x
_atom_site_fract_y
_atom_site_fract_z
C1    C     0.45040841682393 0.48057700338584 0.31587445622198 
C2    C     0.52331098094007 0.42308050055950 0.33672394985403 
C3    C     0.43980064971284 0.62661643939084 0.30257130746035 
C4    C     0.58472699243142 0.50754956072075 0.36190657363511 
C5    C     0.57476457068859 0.64444650849782 0.38897178285371 
C6    C     0.50435175035797 0.69291013383085 0.41362822644798 
C7    C     0.38751649226080 0.38529445656510 0.30417224014866 
C8    C     0.53578368821800 0.27402690267065 0.33037423829652 
C9    C     0.36943111382215 0.67785095633228 0.28271251393691 
C10   C     0.66123785893312 0.45151927464830 0.36054421323560 
C11   C     0.64009906582000 0.73754096648741 0.39219806647061 
C12   C     0.44386131782318 0.59961474729629 0.43287198909060 
C13   C     0.49501636424466 0.84219109940564 0.42248419685634 
C14   C     0.39964460718300 0.23475661455747 0.30782395585882 
C15   C     0.47220327487742 0.18158228346455 0.31729902072016 
C16   C     0.31521152910298 0.44104409749653 0.28595305124902 
C17   C     0.61167184364460 0.21687947631586 0.33682761646408 
C18   C     0.30584761247225 0.58515122653335 0.27579636595107 
C19   C     0.67318334841754 0.30479550436502 0.34809066462511 
C20   C     0.72583492126287 0.54293487881307 0.37041879749724 
C21   C     0.71529601283723 0.68459272808373 0.38152275736658 
C22   C     0.37050135080166 0.65953447969674 0.44538183763058 
C23   C     0.63069818194405 0.88331070468199 0.40722913024688 
C24   C     0.45574434679583 0.45313958837366 0.44504534688943 
C25   C     0.55927442711343 0.93599386956680 0.41870555937968 
C26   C     0.42121790459739 0.89869239850844 0.43578628491121 
C27   C     0.35975469798417 0.81058987568269 0.44363371410129 
C28   C     0.39731826356497 0.36865385492530 0.46492003279107 
C29   C     0.31061603620801 0.56969056218210 0.46346881498829 
C30   C     0.32346394460927 0.42625765902383 0.47311206079192 
H1    H     0.48854127191584 0.69898236665568 0.30693991260800 
H2    H     0.36346036554530 0.79047081136474 0.27201251108592 
H3    H     0.35092081293750 0.16354655628883 0.29964135372331 
H4    H     0.48302516154108 0.06697672027240 0.31582214436029 
H5    H     0.26739165017930 0.36720202880098 0.27861439949293 
H6    H     0.61999229355328 0.10296389428857 0.33027046205634 
H7    H     0.25024594389993 0.62633125388494 0.26105888300487 
H8    H     0.73201211805705 0.26349365276679 0.34908928740286 
H9    H     0.78357645954166 0.49852160274292 0.36668289037679 
H10   H     0.76413793803430 0.75764300734518 0.38506705285114 
H11   H     0.68130823365785 0.95235486885266 0.40786230737083 
H12   H     0.51284590286347 0.40748920269421 0.44090620425088 
H13   H     0.55112417839130 0.04913530234497 0.42726637058157 
H14   H     0.41517179443123 0.01428745860306 0.43879315419962 
H15   H     0.30287593543560 0.85403347381292 0.45167116289378 
H16   H     0.40914829406506 0.25778342729052 0.47576302887190 
H17   H     0.25459985917857 0.61742039906094 0.47117405965291 
H18   H     0.27759946317547 0.35938174225276 0.48871813814687 
