data_stdin
_audit_creation_method 'critic2'
_audit_creation_date 2023-8-11
_chemical_formula_sum 'C30 H18'
_cell_formula_units_Z 2
_cell_length_a         8.8107036485
_cell_length_b        10.9764441518
_cell_length_c        11.4734177578
_cell_angle_alpha        94.8552
_cell_angle_beta        68.6562
_cell_angle_gamma       106.5007
_cell_volume           990.711544
_space_group_crystal_system triclinic
_space_group_IT_number 2
_space_group_name_H-M_alt 'P-1'
_space_group_name_Hall '-P 1'
loop_
_symmetry_equiv_pos_site_id
_symmetry_equiv_pos_as_xyz
 1 'x,y,z'
 2 '-x,-y,-z'
loop_
_atom_site_label
_atom_site_type_symbol
_atom_site_fract_x
_atom_site_fract_y
_atom_site_fract_z
C1    C     0.61716644891786 0.84191281753282 0.24852298131313 
C2    C     0.59848115688113 0.83268111307385 0.37892577943031 
C3    C     0.48460189116520 0.85048223433857 0.21028139561468 
C4    C     0.43804547947818 0.79741595364680 0.48221813410041 
C5    C     0.27840771215169 0.72322654817595 0.47219791643703 
C6    C     0.26035992968538 0.63409608742476 0.37469511061494 
C7    C     0.78049415538674 0.85571243272568 0.15306102005437 
C8    C     0.74963810282180 0.86903783190268 0.40688283993677 
C9    C     0.50821789226648 0.86452237842648 0.08567027377559 
C10   C     0.43594794243283 0.84006212531816 0.60377743935430 
C11   C     0.12627106545159 0.73881520649973 0.56641028003878 
C12   C     0.38131667028153 0.56354271053403 0.30750613625559 
C13   C     0.10848789511725 0.60712970003617 0.34841609339444 
C14   C     0.92490855436043 0.86857467561416 0.18684957112237 
C15   C     0.91064058591941 0.88209782994910 0.30933605332531 
C16   C     0.80065831015218 0.86632763002341 0.02576947663482 
C17   C     0.74210107559861 0.89346156685768 0.53236327578268 
C18   C     0.66704389983557 0.87033938224380 0.99176132432282 
C19   C     0.59038455280836 0.88650617496033 0.62653519689087 
C20   C     0.27964413172995 0.83663172629590 0.70283872895507 
C21   C     0.13051358966816 0.79608051366610 0.68160411410571 
C22   C     0.36408067113895 0.49397492502082 0.19968841228386 
C23   C     0.97024703667960 0.69625323307258 0.54551451540508 
C24   C     0.50534861788434 0.54767756525044 0.35168236600913 
C25   C     0.96512338851290 0.64210088232316 0.43474453758013 
C26   C     0.09773518432563 0.54046019992087 0.23797538664534 
C27   C     0.22465266523738 0.49041609711093 0.16275448540147 
C28   C     0.61078098415713 0.47200654493020 0.29031285093724 
C29   C     0.47922962041695 0.42234862869443 0.13491847011094 
C30   C     0.60140012104036 0.41152205810507 0.17887962809112 
H1    H     0.36241399448528 0.84946607574582 0.28086104429755 
H2    H     0.40342800098085 0.87216571540797 0.06037226953239 
H3    H     0.04733123116111 0.87535599239106 0.11298670442981 
H4    H     0.02188858171098 0.90069301340152 0.33577723385517 
H5    H     0.92630270048830 0.87604102561186 0.95521497239335 
H6    H     0.86012759005223 0.92201005300716 0.55055444236007 
H7    H     0.68477288737797 0.87960875792526 0.89354259508264 
H8    H     0.58370803190637 0.91323270496385 0.72146260572194 
H9    H     0.28322201722876 0.87366830048588 0.79324139446724 
H10   H     0.01140413699460 0.80234811513655 0.75325169518594 
H11   H     0.85582025113979 0.70988149409204 0.61796562791274 
H12   H     0.51395917058396 0.59230324652384 0.43804973038138 
H13   H     0.84866742231219 0.61828650720169 0.41471516787899 
H14   H     0.98443007315053 0.52948315048916 0.21585691622734 
H15   H     0.21705856349521 0.44061451150039 0.07792645381940 
H16   H     0.69907640292308 0.45646894722640 0.32985859720642 
H17   H     0.46638118611856 0.37295890881451 0.05124998542459 
H18   H     0.68714645769779 0.35405451939269 0.12978455512708 
