data_stdin
_audit_creation_method 'critic2'
_audit_creation_date 2023-8-11
_chemical_formula_sum 'C30 H18'
_cell_formula_units_Z 8
_cell_length_a        16.4137098504
_cell_length_b         9.6202796217
_cell_length_c        25.3382323829
_cell_angle_alpha        89.9992
_cell_angle_beta        91.1241
_cell_angle_gamma        89.9992
_cell_volume          4000.250325
_space_group_crystal_system monoclinic
_space_group_IT_number 15
_space_group_name_H-M_alt 'C2/c'
_space_group_name_Hall '-C 2yc'
loop_
_symmetry_equiv_pos_site_id
_symmetry_equiv_pos_as_xyz
 1 'x,y,z'
 2 '-x,-y,-z'
 3 '-x,y,-1/2-z'
 4 '-1/2+x,-1/2-y,-1/2+z'
 5 '-1/2+x,-1/2+y,z'
 6 '-1/2-x,-1/2-y,-z'
 7 '-1/2-x,-1/2+y,-1/2-z'
 8 'x,-y,-1/2+z'
loop_
_atom_site_label
_atom_site_type_symbol
_atom_site_fract_x
_atom_site_fract_y
_atom_site_fract_z
C1    C     0.19344363594604 0.26334351139967 0.06758315399359 
C2    C     0.17703955269407 0.12436436073964 0.08708545200807 
C3    C     0.27305126072704 0.31415283960544 0.05889017704343 
C4    C     0.23741793648787 0.03498529251471 0.11195500930907 
C5    C     0.31240916849691 0.08162407042967 0.13767943659325 
C6    C     0.32452226917215 0.21506167740078 0.16291826188258 
C7    C     0.12678818102201 0.34985399691937 0.05096343554138 
C8    C     0.09747660087517 0.06941408032035 0.07768522010535 
C9    C     0.28638906214679 0.44577574228673 0.03905203052412 
C10   C     0.22357739373327 0.88847578317845 0.10980193580365 
C11   C     0.37946508120830 0.98716447506897 0.13827223962073 
C12   C     0.25945107547286 0.30035443496153 0.18339608641674 
C13   C     0.40581837175105 0.26396697120901 0.17033212192981 
C14   C     0.04594681920528 0.29545860560439 0.04986056465081 
C15   C     0.03259651273400 0.15825510543023 0.06031350885334 
C16   C     0.14195875060753 0.48548647650994 0.03178494905414 
C17   C     0.08220242639069 0.92470498321660 0.08401686543917 
C18   C     0.22045293757513 0.53381779739737 0.02618947487621 
C19   C     0.14476281771158 0.83595728352728 0.09645636349265 
C20   C     0.28887026225033 0.79390062451130 0.11971029227917 
C21   C     0.36596195145884 0.84293702255387 0.12901428301526 
C22   C     0.27629218463357 0.44129562455572 0.19802923217238 
C23   C     0.45967638195501 0.03639522234832 0.14958124732052 
C24   C     0.18071544020110 0.24803998692142 0.19388820887710 
C25   C     0.47281548132504 0.17299026819154 0.16208688929075 
C26   C     0.42076665356857 0.40427875750070 0.18635565758210 
C27   C     0.35794101566528 0.49229180454021 0.19706149634807 
C28   C     0.12072150310420 0.33212171382832 0.21429027747606 
C29   C     0.21278434817494 0.52687674505862 0.21662521163944 
C30   C     0.13595323282609 0.47374916434223 0.22461402631041 
H1    H     0.32489231080768 0.24619874871812 0.06565349699771 
H2    H     0.34836181591201 0.47961710802580 0.03154420833382 
H3    H     0.99572295927946 0.36366970573625 0.03831435604033 
H4    H     0.97180841363174 0.11366093984280 0.05580532133225 
H5    H     0.09008205946238 0.55000015349860 0.02017387002218 
H6    H     0.02084431417422 0.88548011416018 0.07620187441083 
H7    H     0.23126248746996 0.63706822834247 0.01026890942201 
H8    H     0.13550700726618 0.72388695967342 0.09714642712778 
H9    H     0.27672607600991 0.68281415916329 0.11707144174216 
H10   H     0.41779737008016 0.77250676528407 0.13194009542389 
H11   H     0.51033444553237 0.96370456000241 0.14726990921489 
H12   H     0.16789858445178 0.13866982998744 0.18726304505876 
H13   H     0.53432050455317 0.21274101616584 0.16854016069324 
H14   H     0.48385300108783 0.43940308051338 0.18924598716247 
H15   H     0.36902430173690 0.60039500481472 0.20778745236556 
H16   H     0.06123833947936 0.28788022924947 0.22271064088176 
H17   H     0.22658643927606 0.63468230052063 0.22632954396610 
H18   H     0.08834526889782 0.53957851347192 0.24037057110358 
