data_stdin
_audit_creation_method 'critic2'
_audit_creation_date 2023-8-11
_chemical_formula_sum 'C30 H18'
_cell_formula_units_Z 4
_cell_length_a        14.8050608000
_cell_length_b         8.9575775510
_cell_length_c        14.4846152800
_cell_angle_alpha        89.9996
_cell_angle_beta        90.0000
_cell_angle_gamma        90.0008
_cell_volume          1920.913181
_space_group_crystal_system orthorhombic
_space_group_IT_number 19
_space_group_name_H-M_alt 'P2_12_12_1'
_space_group_name_Hall 'P 2ac 2ab'
loop_
_symmetry_equiv_pos_site_id
_symmetry_equiv_pos_as_xyz
 1 'x,y,z'
 2 '-1/2+x,-1/2-y,-z'
 3 '-x,-1/2+y,-1/2-z'
 4 '-1/2-x,-y,-1/2+z'
loop_
_atom_site_label
_atom_site_type_symbol
_atom_site_fract_x
_atom_site_fract_y
_atom_site_fract_z
C1    C     0.04598174273371 0.29626643162405 0.02744303138012 
C2    C     0.97858007955889 0.23935026879768 0.09107050466461 
C3    C     0.06802479225516 0.44971498575320 0.02051928124579 
C4    C     0.90912369927749 0.32927207723412 0.13402219682172 
C5    C     0.87354888008646 0.46769726393544 0.09694565894022 
C6    C     0.87500359967633 0.50922481260820 0.00063291343528 
C7    C     0.09836992507986 0.19336005834757 0.97413297862615 
C8    C     0.98468366850115 0.08633723201614 0.11621063887015 
C9    C     0.13269307009583 0.50036313062468 0.95914216144115 
C10   C     0.87326740900370 0.27883904955016 0.22009089270869 
C11   C     0.83502398513806 0.57146330529129 0.16056448381150 
C12   C     0.87787960943339 0.40369480891547 0.92493778840420 
C13   C     0.87102899183348 0.66345661916665 0.97795650398685 
C14   C     0.09012990722358 0.03680648710891 0.99081714281919 
C15   C     0.03851147654248 0.98636733564183 0.06244153053145 
C16   C     0.16154313553419 0.24811346059221 0.90905302012570 
C17   C     0.93892832815743 0.03347427347325 0.19636896444779 
C18   C     0.17802711983780 0.39931877252206 0.90065404794768 
C19   C     0.88953430236832 0.12953040056628 0.24977866801786 
C20   C     0.82323104440476 0.37873187446894 0.27691526512143 
C21   C     0.81164206796569 0.52448531932085 0.25128521755962 
C22   C     0.90291748615904 0.45492719990866 0.83501754779737 
C23   C     0.81972727462614 0.72182251889363 0.13267335595215 
C24   C     0.84910330845015 0.25379048776966 0.93402776906457 
C25   C     0.84358762540791 0.76879790132501 0.04609382919775 
C26   C     0.89397430792829 0.71137540828440 0.88679599224432 
C27   C     0.91426572564419 0.61094322455852 0.81896766049111 
C28   C     0.85128543616094 0.15668235191422 0.85982601866953 
C29   C     0.90970591447337 0.35124645447087 0.76163510975612 
C30   C     0.88511483382858 0.20370617702878 0.77369327112372 
H1    H     0.03435861166813 0.52902968597086 0.06553475194778 
H2    H     0.14899645104048 0.61892355345856 0.95647568463365 
H3    H     0.13062803570049 0.96005884145867 0.94959483058632 
H4    H     0.03689963277246 0.86830170111856 0.08025115881437 
H5    H     0.19924704019644 0.16826955975662 0.86744797662492 
H6    H     0.94787998424034 0.91737499711558 0.21659340053865 
H7    H     0.22821204817731 0.43890957887483 0.85139700137716 
H8    H     0.85999389198761 0.09226018851813 0.31474138653327 
H9    H     0.79809345820065 0.33920815009010 0.34317379680821 
H10   H     0.78149219068898 0.60483499960892 0.29846392126055 
H11   H     0.79187535576818 0.79915255962635 0.18319417387035 
H12   H     0.82186386356915 0.21583758395684 0.99949635306069 
H13   H     0.83902220790236 0.88624125736617 0.02714079216359 
H14   H     0.89638103336464 0.83081421919630 0.87286145651408 
H15   H     0.93388378490400 0.64891188453428 0.75049973899410 
H16   H     0.82562977200156 0.04352739559535 0.86810622257972 
H17   H     0.93233834494215 0.39110172349113 0.69442936599212 
H18   H     0.89020683897916 0.12513356150826 0.71663086557784 
