data_stdin
_audit_creation_method 'critic2'
_audit_creation_date 2023-8-11
_chemical_formula_sum 'C30 H18'
_cell_formula_units_Z 8
_cell_length_a        14.2451996306
_cell_length_b        13.7225454112
_cell_length_c        20.0943358100
_cell_angle_alpha        89.9994
_cell_angle_beta        90.0002
_cell_angle_gamma        90.0010
_cell_volume          3928.048777
_space_group_crystal_system orthorhombic
_space_group_IT_number 61
_space_group_name_H-M_alt 'Pbca'
_space_group_name_Hall '-P 2ac 2ab'
loop_
_symmetry_equiv_pos_site_id
_symmetry_equiv_pos_as_xyz
 1 'x,y,z'
 2 '-x,-y,-z'
 3 '-1/2+x,-1/2-y,-z'
 4 '-1/2-x,-1/2+y,z'
 5 '-x,-1/2+y,-1/2-z'
 6 'x,-1/2-y,-1/2+z'
 7 '-1/2-x,-y,-1/2+z'
 8 '-1/2+x,y,-1/2-z'
loop_
_atom_site_label
_atom_site_type_symbol
_atom_site_fract_x
_atom_site_fract_y
_atom_site_fract_z
C1    C     0.55199659107195 0.32796779562245 0.97285655683000 
C2    C     0.50848584066197 0.37704070312669 0.91680098510401 
C3    C     0.64685158435353 0.29716073089566 0.97322182641827 
C4    C     0.54666529818015 0.37817044009013 0.85016556041605 
C5    C     0.61233278806340 0.30736991416256 0.82320564974185 
C6    C     0.61793022869684 0.20591332700868 0.84218527453880 
C7    C     0.49980058572254 0.31611698083330 0.03322267057084 
C8    C     0.42529418826143 0.43158121231772 0.92928917576248 
C9    C     0.68537546114567 0.24942510576156 0.02732871634368 
C10   C     0.51902466827004 0.45588149862317 0.80705511203183 
C11   C     0.67538131102383 0.34070721848261 0.77287795054907 
C12   C     0.54032860862056 0.15090121112706 0.87011185214323 
C13   C     0.70286480187114 0.15474505052510 0.82893827392157 
C14   C     0.41057007597755 0.36194693098444 0.04015142849079 
C15   C     0.37741132864305 0.42197816272272 0.99138030718019 
C16   C     0.53993106537850 0.26510528470041 0.08745647909340 
C17   C     0.39002186813646 0.49705632005237 0.88031077322535 
C18   C     0.63093011466915 0.23084197170842 0.08445477803590 
C19   C     0.43852528602157 0.51305843100520 0.82258913203453 
C20   C     0.57379051688902 0.47793654214371 0.74974039391815 
C21   C     0.65486940357414 0.42776490389248 0.73719949593360 
C22   C     0.55707335010904 0.05511484653726 0.89584839227448 
C23   C     0.75731251653971 0.28554762238409 0.75766638301026 
C24   C     0.44585768382293 0.18296269209268 0.86740260436209 
C25   C     0.77350401090990 0.19801394635797 0.78821004642171 
C26   C     0.71714093587044 0.05918893378361 0.85544398780993 
C27   C     0.64813883333322 0.01262687327534 0.89023447530001 
C28   C     0.37317955143384 0.12739921290478 0.89281193224806 
C29   C     0.48191422469987 0.00054289954994 0.92281101276949 
C30   C     0.39141873136537 0.03642258363654 0.92246456865130 
H1    H     0.69119109106248 0.31244311444963 0.93055571780519 
H2    H     0.75851053396341 0.22675071935937 0.02557695061755 
H3    H     0.37181604997959 0.35228468429793 0.08636513293985 
H4    H     0.31297701935085 0.46325597718955 0.99904370489442 
H5    H     0.49827971614236 0.25544863595245 0.13250568943820 
H6    H     0.32728197038648 0.53913947766974 0.89181750104588 
H7    H     0.66080623345782 0.19212795590337 0.12668780735697 
H8    H     0.41625910916669 0.56903902988079 0.78749261890068 
H9    H     0.55281627195977 0.53890939181990 0.71853028656150 
H10   H     0.70272204401077 0.45120645932290 0.69806761740105 
H11   H     0.80735103913432 0.31591837560341 0.72225228386094 
H12   H     0.42963233775144 0.25167443535371 0.84333464997112 
H13   H     0.83769235264054 0.15720418512354 0.77865250911062 
H14   H     0.78446348775149 0.02388219318756 0.84677647944456 
H15   H     0.65970355580907 0.94022071620384 0.91097509678596 
H16   H     0.30144719027973 0.15399667876441 0.88873859260987 
H17   H     0.49628738196723 0.92828247792933 0.94258674909017 
H18   H     0.33461502171416 0.99286771323204 0.94320972764811 
