data_stdin
_audit_creation_method 'critic2'
_audit_creation_date 2023-8-11
_chemical_formula_sum 'C30 H18'
_cell_formula_units_Z 4
_cell_length_a         9.3497735662
_cell_length_b        15.1105846706
_cell_length_c        15.4225138774
_cell_angle_alpha        89.9999
_cell_angle_beta        65.0073
_cell_angle_gamma        90.0016
_cell_volume          1974.872760
_space_group_crystal_system monoclinic
_space_group_IT_number 14
_space_group_name_H-M_alt 'P2_1/c'
_space_group_name_Hall '-P 2ybc'
loop_
_symmetry_equiv_pos_site_id
_symmetry_equiv_pos_as_xyz
 1 'x,y,z'
 2 '-x,-y,-z'
 3 '-x,-1/2+y,-1/2-z'
 4 'x,-1/2-y,-1/2+z'
loop_
_atom_site_label
_atom_site_type_symbol
_atom_site_fract_x
_atom_site_fract_y
_atom_site_fract_z
C1    C     0.20822129160073 0.72777600694927 0.07110615841216 
C2    C     0.21386760207520 0.65741746166877 0.13389193556647 
C3    C     0.33663818092309 0.74924383357718 0.98323763526322 
C4    C     0.35748241110678 0.61532029490000 0.12710187403062 
C5    C     0.51449175496828 0.65352335990202 0.08294484429444 
C6    C     0.55029031949404 0.74700474829265 0.07661189316510 
C7    C     0.06281505819628 0.77378456600476 0.09350660420761 
C8    C     0.06705225313469 0.62394056962160 0.20243886197419 
C9    C     0.32735021822100 0.81695034868888 0.92556356615930 
C10   C     0.34515471819030 0.52722302035042 0.16328536408729 
C11   C     0.64398540262669 0.59356455036063 0.04172734675776 
C12   C     0.44932403006265 0.81345932450209 0.14160877232299 
C13   C     0.69691374812205 0.77564052814953 0.00399865703916 
C14   C     0.92180030734406 0.74415317551864 0.17090877533451 
C15   C     0.92335945168378 0.66971940879581 0.22060610850393 
C16   C     0.05749486249582 0.84460706659842 0.03476799654887 
C17   C     0.06173584426005 0.54262667394666 0.25063973988118 
C18   C     0.18790635496995 0.86693760920726 0.95232198752964 
C19   C     0.19549839114127 0.49310850909348 0.22661668040739 
C20   C     0.48128369150463 0.47242070704993 0.13338082833900 
C21   C     0.62345695521181 0.50251588108641 0.06737032066814 
C22   C     0.48160248006667 0.90522689122404 0.11834036727992 
C23   C     0.79359011638918 0.62504893772139 0.97482129292818 
C24   C     0.32669128022246 0.79262393848015 0.23188258400288 
C25   C     0.81555968502349 0.71284170807355 0.95148881196910 
C26   C     0.72651745227524 0.86778539977390 0.98394778202251 
C27   C     0.61932681211081 0.93042184533662 0.03594502216435 
C28   C     0.23518243834457 0.85770474011085 0.29320434447336 
C29   C     0.38205862913366 0.97045429797852 0.18051639290055 
C30   C     0.25978708092058 0.94742102215772 0.26646366710777 
H1    H     0.44407759993209 0.71047994477934 0.95933288433705 
H2    H     0.42805105442551 0.83047459154828 0.85794135281678 
H3    H     0.81149086939610 0.77854989158995 0.18554074796455 
H4    H     0.81402557506924 0.64380171301868 0.27567753803519 
H5    H     0.94600322970751 0.87935014199254 0.05433209916980 
H6    H     0.94814737824042 0.51709530327895 0.30124766460610 
H7    H     0.18173799545521 0.92045492809861 0.90668636759108 
H8    H     0.18952392576481 0.42675920013692 0.25548690812418 
H9    H     0.46840150639028 0.40511424686710 0.16091565621813 
H10   H     0.72471658675819 0.45841503140571 0.03672654232139 
H11   H     0.88756827371554 0.57703929528509 0.94018497763791 
H12   H     0.30648226600427 0.72417191611401 0.25495641231482 
H13   H     0.92573357426078 0.73683763393649 0.89562659803823 
H14   H     0.83799822715949 0.88689981244847 0.92572295723465 
H15   H     0.64118837645572 0.00034530489553 0.01827771066814 
H16   H     0.14658089672421 0.83910065747676 0.36362084175389 
H17   H     0.40803544049314 0.03967247767523 0.16019781844113 
H18   H     0.18729401557823 0.99848863244260 0.31484406915238 
