data_stdin
_audit_creation_method 'critic2'
_audit_creation_date 2023-8-11
_chemical_formula_sum 'C30 H18'
_cell_formula_units_Z 4
_cell_length_a        10.8114288194
_cell_length_b        11.1252886600
_cell_length_c        16.6441679984
_cell_angle_alpha        90.0002
_cell_angle_beta       107.2545
_cell_angle_gamma        90.0001
_cell_volume          1911.869551
_space_group_crystal_system monoclinic
_space_group_IT_number 14
_space_group_name_H-M_alt 'P2_1/c'
_space_group_name_Hall '-P 2ybc'
loop_
_symmetry_equiv_pos_site_id
_symmetry_equiv_pos_as_xyz
 1 'x,y,z'
 2 '-x,-y,-z'
 3 '-x,-1/2+y,-1/2-z'
 4 'x,-1/2-y,-1/2+z'
loop_
_atom_site_label
_atom_site_type_symbol
_atom_site_fract_x
_atom_site_fract_y
_atom_site_fract_z
C1    C     0.76611048967714 0.65008939030046 0.63341549449877 
C2    C     0.80592134283422 0.62057847535259 0.72227680621919 
C3    C     0.80441822094214 0.75714495098514 0.60114938948120 
C4    C     0.85952727240007 0.70553867113851 0.78963534390229 
C5    C     0.83407478701568 0.83369908080856 0.78569041624146 
C6    C     0.72263805212039 0.89279750766231 0.72836271070784 
C7    C     0.69592910537100 0.56296020578887 0.57382119260402 
C8    C     0.79745903196206 0.49814429993207 0.74446232291411 
C9    C     0.76804360468468 0.78060997949563 0.51573284787471 
C10   C     0.94517912524231 0.65844291653222 0.86589546397744 
C11   C     0.92669895788470 0.90876227397194 0.84305879549439 
C12   C     0.59729406444270 0.83691866582288 0.69120124534082 
C13   C     0.73620541244953 0.01594445773887 0.70929439861210 
C14   C     0.66900868193678 0.44752095604644 0.60203579853985 
C15   C     0.72165077058563 0.41552510974153 0.68423529998300 
C16   C     0.65876901018357 0.58979723961027 0.48675714968019 
C17   C     0.86947206173707 0.45589339666120 0.82560927895836 
C18   C     0.69230427220766 0.69755467220092 0.45784908853387 
C19   C     0.95019549057163 0.53232337985496 0.88139791783858 
C20   C     0.02402286084400 0.73702103337890 0.92738164638228 
C21   C     0.02059895622864 0.85826883337116 0.91373597211375 
C22   C     0.50204650075977 0.89798219959771 0.62525509917274 
C23   C     0.92803836087504 0.03479105864422 0.82865468496307 
C24   C     0.55964548460590 0.72654583272699 0.71947078519105 
C25   C     0.84304039371438 0.08443441161854 0.75891688022057 
C26   C     0.63896875736280 0.07402940162076 0.64352679572931 
C27   C     0.52706785571855 0.01648816039911 0.60147397795946 
C28   C     0.44161313617986 0.67361723030091 0.68004180368009 
C29   C     0.38204108708422 0.84158725488521 0.58525520750523 
C30   C     0.35274072291342 0.72992074293601 0.61085846949584 
H1    H     0.86607339357739 0.82112756585795 0.64406537557351 
H2    H     0.79990272893666 0.86309601045793 0.49270887525655 
H3    H     0.61134889337018 0.38416578846024 0.55610832010693 
H4    H     0.70684514027569 0.32606592949014 0.70617764967670 
H5    H     0.60454961955513 0.52255672965322 0.44268513825144 
H6    H     0.86473959090663 0.36075615568210 0.83984564868095 
H7    H     0.66334351389962 0.71645691787859 0.39075345914367 
H8    H     0.01670688200391 0.49900633652810 0.93980917562907 
H9    H     0.08943129170540 0.69798273785833 0.98423974483885 
H10   H     0.08694406171995 0.91891428138762 0.95729150589725 
H11   H     0.00237177134866 0.08895090804608 0.87187986196302 
H12   H     0.62441972212341 0.68121184917138 0.77331766733691 
H13   H     0.85155843690878 0.17821825738932 0.74271890931817 
H14   H     0.65542164471851 0.16655134315339 0.62801248029670 
H15   H     0.45398318644783 0.06168277669446 0.55118636220419 
H16   H     0.41730164979321 0.58817266126583 0.70321891699831 
H17   H     0.31315346679991 0.88926968551405 0.53392978664817 
H18   H     0.26087091109400 0.68623080658078 0.57969249111846 
