data_stdin
_audit_creation_method 'critic2'
_audit_creation_date 2023-8-11
_chemical_formula_sum 'C30 H18'
_cell_formula_units_Z 4
_cell_length_a         9.8169257268
_cell_length_b        16.7984560100
_cell_length_c        12.1548670208
_cell_angle_alpha        90.0001
_cell_angle_beta        87.7184
_cell_angle_gamma        90.0001
_cell_volume          2002.860285
_space_group_crystal_system monoclinic
_space_group_IT_number 9
_space_group_name_H-M_alt 'Cc'
_space_group_name_Hall 'C -2yc'
loop_
_symmetry_equiv_pos_site_id
_symmetry_equiv_pos_as_xyz
 1 'x,y,z'
 2 '-1/2+x,-1/2-y,-1/2+z'
 3 '-1/2+x,-1/2+y,z'
 4 'x,-y,-1/2+z'
loop_
_atom_site_label
_atom_site_type_symbol
_atom_site_fract_x
_atom_site_fract_y
_atom_site_fract_z
C1    C     0.00072076930530 0.26038581572548 0.99759981467596 
C2    C     0.95034290819048 0.33636084776731 0.03873788951749 
C3    C     0.91419566800318 0.19596165638599 0.97271415650912 
C4    C     0.81523480957572 0.34937394967991 0.08743192241941 
C5    C     0.72977065150361 0.28857460533490 0.13967115786512 
C6    C     0.77925030702192 0.21638152142762 0.18893912489239 
C7    C     0.14353163239531 0.25078767011526 0.97320382309803 
C8    C     0.03905728266815 0.40310293431818 0.02667388291235 
C9    C     0.96580432817486 0.12450403954281 0.93310552778903 
C10   C     0.76147207681435 0.42828953956185 0.08398933422603 
C11   C     0.58599436888887 0.30142654556963 0.14379526240638 
C12   C     0.91430160780031 0.20728981379496 0.23128914621366 
C13   C     0.68777541627043 0.15115681050963 0.20223811894612 
C14   C     0.23288686558342 0.31726715773939 0.98100967478226 
C15   C     0.18088547502636 0.39143604683047 0.00120967834513 
C16   C     0.19428477900674 0.17643519932428 0.93523994283702 
C17   C     0.98641286416507 0.48172390902375 0.03952238229796 
C18   C     0.10733983765479 0.11388532912357 0.91601471348304 
C19   C     0.84998348166624 0.49383758299974 0.06040838850930 
C20   C     0.61923519846389 0.44150654925655 0.10332200573546 
C21   C     0.53317634263391 0.37880765391687 0.12407187309721 
C22   C     0.96270575427444 0.12932760000225 0.25663053441349 
C23   C     0.49553789895828 0.23732271170378 0.16995698501167 
C24   C     0.99760969025320 0.27279698902464 0.25799983570738 
C25   C     0.54533952756271 0.16306222638856 0.19108825041473 
C26   C     0.73874368503454 0.07411923986103 0.22880901573044 
C27   C     0.87324650410311 0.06273874817088 0.24888478596168 
C28   C     0.12538921791133 0.26205324658293 0.29948080067841 
C29   C     0.09545579652923 0.11986302343191 0.29629274385962 
C30   C     0.17667392794739 0.18489291607628 0.31662985113066 
H1    H     0.80470247633468 0.20312590826161 0.98361778333600 
H2    H     0.89606521993512 0.07628442245022 0.91475433840382 
H3    H     0.34145294672820 0.30866067277836 0.96324138706336 
H4    H     0.24703538200247 0.44356608942162 0.99819569194575 
H5    H     0.30363818261096 0.17055609618895 0.91832993053690 
H6    H     0.05592238111401 0.53189570193330 0.02796398665092 
H7    H     0.14784405734374 0.05749669088492 0.88521471254537 
H8    H     0.80694694068086 0.55361057697940 0.06250116688309 
H9    H     0.58041962702455 0.50198337304684 0.09672528872445 
H10   H     0.42321134873252 0.38736397704050 0.13087053106209 
H11   H     0.38617585138088 0.24821427216797 0.17023653702754 
H12   H     0.95943423162520 0.33285163361836 0.24747635018749 
H13   H     0.47671627185452 0.11287253750039 0.20564437741961 
H14   H     0.66716616090978 0.02447524434351 0.23249814924649 
H15   H     0.91245182621399 0.00357971415940 0.26600829619571 
H16   H     0.18650500199688 0.31377688766337 0.31956506964349 
H17   H     0.13136621202715 0.05999884147657 0.31362121042349 
H18   H     0.27765234804668 0.17681575934493 0.34872843063495 
