data_stdin
_audit_creation_method 'critic2'
_audit_creation_date 2023-8-11
_chemical_formula_sum 'C30 H18'
_cell_formula_units_Z 4
_cell_length_a         8.9131196163
_cell_length_b        13.5178332108
_cell_length_c        16.9538685103
_cell_angle_alpha        90.0006
_cell_angle_beta        77.9319
_cell_angle_gamma        90.0004
_cell_volume          1997.560386
_space_group_crystal_system monoclinic
_space_group_IT_number 14
_space_group_name_H-M_alt 'P2_1/c'
_space_group_name_Hall '-P 2ybc'
loop_
_symmetry_equiv_pos_site_id
_symmetry_equiv_pos_as_xyz
 1 'x,y,z'
 2 '-x,-y,-z'
 3 '-x,-1/2+y,-1/2-z'
 4 'x,-1/2-y,-1/2+z'
loop_
_atom_site_label
_atom_site_type_symbol
_atom_site_fract_x
_atom_site_fract_y
_atom_site_fract_z
C1    C     0.62032243472288 0.18627211803392 0.11304942607696 
C2    C     0.55813796605958 0.28475945901507 0.13147282657830 
C3    C     0.77435353211295 0.16099605410649 0.11379746304138 
C4    C     0.65037262404255 0.37270489000804 0.13101018280649 
C5    C     0.80604215786234 0.38386947657464 0.08550403428956 
C6    C     0.86909879783910 0.33243009964863 0.01142976011796 
C7    C     0.52008639223363 0.10833180761215 0.09942161987545 
C8    C     0.39612415387234 0.29424206463680 0.15566184771872 
C9    C     0.83074855914354 0.06701488739856 0.09344965427754 
C10   C     0.58483577541004 0.45421101325856 0.17971272412586 
C11   C     0.90340821438656 0.45153769814987 0.11546608359950 
C12   C     0.77857817764013 0.29713735666736 0.95541663656676 
C13   C     0.03087401393143 0.32129399249646 0.98936153339147 
C14   C     0.35892470247552 0.12638580375033 0.11125039916801 
C15   C     0.29883268233956 0.21446890856685 0.14248575676064 
C16   C     0.58031961791857 0.01259877831677 0.07897797082692 
C17   C     0.33140547709442 0.38284760694210 0.19388585353599 
C18   C     0.73412569569565 0.99277218362352 0.07356503407615 
C19   C     0.42340633131837 0.45791957820571 0.21021208739342 
C20   C     0.68175473831087 0.53031179985113 0.19893467194970 
C21   C     0.83768414311592 0.52412910092102 0.17336406191142 
C22   C     0.84687711671584 0.23102419644579 0.89201546246099 
C23   C     0.06496675015907 0.44715114994654 0.08589506352072 
C24   C     0.62945443727009 0.33304071223212 0.95503712077434 
C25   C     0.12710519248490 0.37824123992794 0.02931341405599 
C26   C     0.09590917698645 0.25571327669451 0.92526928319521 
C27   C     0.00611899296702 0.20781804960731 0.88119740149581 
C28   C     0.54834862414401 0.30024953224667 0.89893863783672 
C29   C     0.75877967481031 0.19519695444921 0.83749508438393 
C30   C     0.61084327542730 0.22841919731846 0.84118552353626 
H1    H     0.84912413349456 0.21619483613591 0.13169113455241 
H2    H     0.95022231998257 0.05003423367598 0.09361820285713 
H3    H     0.28488040522670 0.06639236081512 0.09954872757436 
H4    H     0.17514637906885 0.22623191441665 0.15737014948226 
H5    H     0.50244807770599 0.95411419786547 0.06892879358776 
H6    H     0.20718718189639 0.38767014266020 0.21276477735352 
H7    H     0.77973210183058 0.91938246812193 0.05672093525045 
H8    H     0.37492933830879 0.52216685748741 0.24522712658829 
H9    H     0.62996068367816 0.59048161339385 0.23781272918220 
H10   H     0.91310402666443 0.57789665864515 0.19316606300915 
H11   H     0.13804970023364 0.49840068569750 0.11013598394242 
H12   H     0.57981944161921 0.38979483668815 0.99802295473320 
H13   H     0.25096014265896 0.37017745204319 0.01069666065310 
H14   H     0.21966407312465 0.24475575028776 0.91210707782573 
H15   H     0.05671782603434 0.15591564169893 0.83393333281652 
H16   H     0.43664417387077 0.33227921378474 0.89817275714673 
H17   H     0.81097998600987 0.14287354361285 0.79078362376857 
H18   H     0.54502167573856 0.20156577490264 0.79826272286638 
