data_stdin
_audit_creation_method 'critic2'
_audit_creation_date 2023-8-11
_chemical_formula_sum 'C30 H18'
_cell_formula_units_Z 2
_cell_length_a        11.9626325505
_cell_length_b         8.8079684966
_cell_length_c        11.4691126196
_cell_angle_alpha        68.6210
_cell_angle_beta        78.8647
_cell_angle_gamma        61.6692
_cell_volume           990.220478
_space_group_crystal_system triclinic
_space_group_IT_number 2
_space_group_name_H-M_alt 'P-1'
_space_group_name_Hall '-P 1'
loop_
_symmetry_equiv_pos_site_id
_symmetry_equiv_pos_as_xyz
 1 'x,y,z'
 2 '-x,-y,-z'
loop_
_atom_site_label
_atom_site_type_symbol
_atom_site_fract_x
_atom_site_fract_y
_atom_site_fract_z
C1    C     0.65810610556379 0.72465667093242 0.25202251605695 
C2    C     0.66725534749469 0.73446114562259 0.12146897941932 
C3    C     0.64948292991421 0.86569273707209 0.29044546318700 
C4    C     0.70253025741595 0.85992370854123 0.01804466800787 
C5    C     0.77670339685924 0.94558717223348 0.02791076075823 
C6    C     0.86565296589957 0.87476319795155 0.12528661331225 
C7    C     0.64452493896222 0.57471566655233 0.34752006603074 
C8    C     0.63085892128574 0.61962881503789 0.09354708819070 
C9    C     0.63569106270784 0.85562087888430 0.41524201594619 
C10   C     0.65988188461435 0.90476277693554 0.89653428675390 
C11   C     0.76122028142947 0.11335422558017 0.93370755030254 
C12   C     0.93611760156468 0.68342757793455 0.19236667502162 
C13   C     0.89252775923168 0.99981944399955 0.15154518642264 
C14   C     0.63158116187556 0.44325186760789 0.31365083836235 
C15   C     0.61784426909110 0.47141129936331 0.19113199991575 
C16   C     0.63416673264633 0.56467994532160 0.47496985263925 
C17   C     0.60632535357961 0.65184249902411 0.96806742132427 
C18   C     0.63015940878471 0.70220406831904 0.50914430005904 
C19   C     0.61329101568205 0.79680355191210 0.87387125229610 
C20   C     0.66343026128107 0.05773174979010 0.79742594271328 
C21   C     0.70405906962157 0.16633212201838 0.81859343517455 
C22   C     0.00549350519528 0.63134461821636 0.30009892231599 
C23   C     0.80372967744037 0.22698570020664 0.95452933094595 
C24   C     0.95213182564931 0.54351866372284 0.14810051230485 
C25   C     0.85770440579626 0.17809577048078 0.06524793337286 
C26   C     0.95891257906064 0.94416150283611 0.26195941084079 
C27   C     0.00885213806589 0.76730701688871 0.33712056932219 
C28   C     0.02786007397625 0.36262487212308 0.20924063281265 
C29   C     0.07720386299501 0.44475647379349 0.36463416866211 
C30   C     0.08825285285288 0.31173264619409 0.32054285215665 
H1    H     0.65034250015473 0.98712177889558 0.21988999748942 
H2    H     0.62801485247389 0.96797054073303 0.44069597867064 
H3    H     0.62487784929032 0.32738620960436 0.38752483226641 
H4    H     0.59912892984095 0.37886300632795 0.16465761804591 
H5    H     0.62460420754485 0.44846882758998 0.54555148247947 
H6    H     0.57769321534196 0.56236876499994 0.94992738597452 
H7    H     0.62104537634734 0.69335608606684 0.60750224590346 
H8    H     0.58647035927801 0.83038438905171 0.77898326019569 
H9    H     0.62640324969117 0.09124102946999 0.70707767795875 
H10   H     0.69788494696473 0.29175444610151 0.74694121952604 
H11   H     0.79018160295104 0.35504629293206 0.88207275371489 
H12   H     0.90759712712363 0.57936902625742 0.06181493140382 
H13   H     0.88146910348108 0.27082972852598 0.08526798552722 
H14   H     0.96975846274684 0.04661079780202 0.28409534663548 
H15   H     0.05846222147167 0.72527714287599 0.42192065647808 
H16   H     0.04348863240932 0.25880891219800 0.16961856707894 
H17   H     0.12650069008075 0.40839594108887 0.44820716712245 
H18   H     0.14581941036685 0.16868869489201 0.36944614757794 
