data_stdin
_audit_creation_method 'critic2'
_audit_creation_date 2023-8-11
_chemical_formula_sum 'C30 H18'
_cell_formula_units_Z 4
_cell_length_a         9.5267296062
_cell_length_b        14.4445759700
_cell_length_c        14.5748901909
_cell_angle_alpha        90.0000
_cell_angle_beta        81.0589
_cell_angle_gamma        90.0000
_cell_volume          1981.272989
_space_group_crystal_system monoclinic
_space_group_IT_number 14
_space_group_name_H-M_alt 'P2_1/c'
_space_group_name_Hall '-P 2ybc'
loop_
_symmetry_equiv_pos_site_id
_symmetry_equiv_pos_as_xyz
 1 'x,y,z'
 2 '-x,-y,-z'
 3 '-x,-1/2+y,-1/2-z'
 4 'x,-1/2-y,-1/2+z'
loop_
_atom_site_label
_atom_site_type_symbol
_atom_site_fract_x
_atom_site_fract_y
_atom_site_fract_z
C1    C     0.38732484818521 0.81853670975067 0.32589729983367 
C2    C     0.52626360336411 0.85972542065317 0.32656576333606 
C3    C     0.35388435848181 0.76255666125299 0.25240464692267 
C4    C     0.63286289781135 0.87063493874229 0.24516354005886 
C5    C     0.60463206215309 0.87644286820377 0.15032797997135 
C6    C     0.47479394358493 0.91052310668634 0.12283043972917 
C7    C     0.28113652505692 0.82739940444899 0.40645520596276 
C8    C     0.56215528698813 0.88568170781458 0.41415300312323 
C9    C     0.22036343427617 0.72398802717485 0.25501798412267 
C10   C     0.77779300673187 0.87505759722022 0.25908487559001 
C11   C     0.71503841473210 0.84673178705198 0.07861923507356 
C12   C     0.37627474628430 0.97317748423428 0.17780027845714 
C13   C     0.44453502019739 0.88513273373820 0.03364272164977 
C14   C     0.31727912305046 0.86723110079322 0.48914033923786 
C15   C     0.45473561157521 0.89019548720813 0.49409592166653 
C16   C     0.14359451118812 0.79076799572767 0.40569572697472 
C17   C     0.70563811923982 0.90644632507615 0.42300150817240 
C18   C     0.11236103340043 0.74041195702531 0.33092647536723 
C19   C     0.81136619081474 0.89546350705321 0.34880218962269 
C20   C     0.88864934891311 0.85844641886941 0.18344507645494 
C21   C     0.85653888223848 0.83731284734698 0.09757991106281 
C22   C     0.23822520145507 0.98654737459383 0.15297399188334 
C23   C     0.68428614689611 0.82881519747043 0.98796349752248 
C24   C     0.41428879490627 0.03006558520508 0.24927762303040 
C25   C     0.55036903994917 0.84208809088385 0.96792687433721 
C26   C     0.30841131997296 0.90411122880387 0.00847929442056 
C27   C     0.20590741954881 0.94844311727414 0.06834115964954 
C28   C     0.31814991185986 0.09080452603531 0.29830928717020 
C29   C     0.13891359064091 0.04472082112028 0.20786315369974 
C30   C     0.17732868885894 0.09585459525813 0.28009530056302 
H1    H     0.43512658719437 0.74828559687222 0.19323210457626 
H2    H     0.19906227334536 0.68047786291701 0.19774870374314 
H3    H     0.23468045841361 0.87460622940232 0.54936974543857 
H4    H     0.48468052916705 0.91495067868709 0.55885645131538 
H5    H     0.06358879931307 0.80118639781065 0.46694352053906 
H6    H     0.72965406603982 0.92698939076066 0.49075670299981 
H7    H     0.00630096122128 0.71230209951029 0.33113818946110 
H8    H     0.92274025731645 0.90389419061221 0.35609818626083 
H9    H     0.99815961224375 0.85906599188976 0.19639682479042 
H10   H     0.93988761763945 0.81805535933377 0.04085601552322 
H11   H     0.76848109438111 0.80285583716272 0.93516403529765 
H12   H     0.52296028055424 0.02851817186449 0.26340823276268 
H13   H     0.52482464383345 0.82462787324976 0.89985228404328 
H14   H     0.28821666887669 0.88167538366738 0.94038077482911 
H15   H     0.10117311200359 0.96112421814086 0.04976689046689 
H16   H     0.35152305778325 0.13646939191738 0.35034095741027 
H17   H     0.03266554812410 0.05070695097724 0.18938058707779 
H18   H     0.10217989167409 0.14289239020219 0.32025709506080 
