data_stdin
_audit_creation_method 'critic2'
_audit_creation_date 2023-8-11
_chemical_formula_sum 'C30 H18'
_cell_formula_units_Z 4
_cell_length_a         8.1990552613
_cell_length_b        16.1962315911
_cell_length_c        15.3861031847
_cell_angle_alpha        90.0000
_cell_angle_beta        75.0891
_cell_angle_gamma        89.9995
_cell_volume          1974.379738
_space_group_crystal_system monoclinic
_space_group_IT_number 14
_space_group_name_H-M_alt 'P2_1/c'
_space_group_name_Hall '-P 2ybc'
loop_
_symmetry_equiv_pos_site_id
_symmetry_equiv_pos_as_xyz
 1 'x,y,z'
 2 '-x,-y,-z'
 3 '-x,-1/2+y,-1/2-z'
 4 'x,-1/2-y,-1/2+z'
loop_
_atom_site_label
_atom_site_type_symbol
_atom_site_fract_x
_atom_site_fract_y
_atom_site_fract_z
C1    C     0.31730698588800 0.22524732578602 0.57264199088732 
C2    C     0.26760098055178 0.29858903519895 0.62703510001751 
C3    C     0.24218113899731 0.14689220130982 0.59658845521904 
C4    C     0.17379403761924 0.29838450013415 0.72065723823403 
C5    C     0.17429827577007 0.23209327470526 0.78389991135421 
C6    C     0.30684934148062 0.17134665461125 0.77496645661914 
C7    C     0.43624560929688 0.23249910224700 0.48670220192743 
C8    C     0.30657480028656 0.37630933427032 0.58353672623271 
C9    C     0.28745238024364 0.07907962155206 0.54115244877183 
C10   C     0.07263069632876 0.36920563580055 0.75318938408303 
C11   C     0.03394195409711 0.22637377679362 0.86106417766029 
C12   C     0.48103157749012 0.18459472623962 0.72587673238179 
C13   C     0.26633527708270 0.09502381321538 0.82099102161707 
C14   C     0.49783697289895 0.31189592776763 0.45369263110131 
C15   C     0.42801793187796 0.38124048003073 0.49860903526339 
C16   C     0.48440185355616 0.16142292363169 0.43255596638905 
C17   C     0.22082336718884 0.44878550666533 0.62355271821576 
C18   C     0.41249731768096 0.08553296271190 0.45933013185627 
C19   C     0.09785021137968 0.44383837413768 0.70259679008345 
C20   C     0.94704094738887 0.36525351476343 0.83633352734683 
C21   C     0.92101903670543 0.29409259402509 0.88574927784095 
C22   C     0.59304400622825 0.11544361759716 0.70531658778011 
C23   C     0.00668287027043 0.15269398290399 0.91339882718787 
C24   C     0.55117699304452 0.26422689539277 0.70405207941033 
C25   C     0.11328859111334 0.08687181608939 0.88977484962513 
C26   C     0.38210127660291 0.02755989776343 0.80070623301601 
C27   C     0.53673923783669 0.03610690873508 0.74129325736405 
C28   C     0.71839113533027 0.27463825448906 0.65800165209921 
C29   C     0.76180392087225 0.12748519097178 0.65441734500906 
C30   C     0.82363026960775 0.20575337323904 0.62995672551602 
H1    H     0.14392815966149 0.14045087770481 0.65874378919163 
H2    H     0.22503027235590 0.02007608434149 0.56029696089558 
H3    H     0.59108016719531 0.31626175911332 0.38909162269857 
H4    H     0.46100531893886 0.44191252896112 0.46883416047553 
H5    H     0.57663776174333 0.16858328277266 0.36798742460006 
H6    H     0.24902163835923 0.50743594445267 0.58818877409570 
H7    H     0.44971737081083 0.03123974139013 0.41729883111136 
H8    H     0.02190996382424 0.49765630405397 0.72957235065818 
H9    H     0.86725888285768 0.41909286883411 0.85769587325846 
H10   H     0.81773913213359 0.28922412093355 0.94629300961766 
H11   H     0.89614675495231 0.14947243062528 0.97058140960193 
H12   H     0.47276609242673 0.31811546807594 0.72613078640854 
H13   H     0.08747930400282 0.02845474616235 0.92578148725893 
H14   H     0.34457082462961 0.96876475738620 0.83440741731307 
H15   H     0.62341962774542 0.98411067543887 0.72538480506919 
H16   H     0.77048946376587 0.33657125655322 0.64436488228965 
H17   H     0.84353156871642 0.07365374236910 0.63675901400995 
H18   H     0.95371719341485 0.21444836399102 0.59148665529171 
