data_stdin
_audit_creation_method 'critic2'
_audit_creation_date 2023-8-11
_chemical_formula_sum 'C30 H18'
_cell_formula_units_Z 8
_cell_length_a         9.8099991102
_cell_length_b        14.9613005035
_cell_length_c        26.4044197991
_cell_angle_alpha        89.9991
_cell_angle_beta        89.9999
_cell_angle_gamma        89.9999
_cell_volume          3875.385793
_space_group_crystal_system orthorhombic
_space_group_IT_number 61
_space_group_name_H-M_alt 'Pbca'
_space_group_name_Hall '-P 2ac 2ab'
loop_
_symmetry_equiv_pos_site_id
_symmetry_equiv_pos_as_xyz
 1 'x,y,z'
 2 '-x,-y,-z'
 3 '-1/2-x,-y,-1/2+z'
 4 '-1/2+x,y,-1/2-z'
 5 '-1/2+x,-1/2-y,-z'
 6 '-1/2-x,-1/2+y,z'
 7 '-x,-1/2+y,-1/2-z'
 8 'x,-1/2-y,-1/2+z'
loop_
_atom_site_label
_atom_site_type_symbol
_atom_site_fract_x
_atom_site_fract_y
_atom_site_fract_z
C1    C     0.05549789290908 0.03709717364145 0.38490722215813 
C2    C     0.05393231278128 0.11406916619752 0.35139370207709 
C3    C     0.00667921737263 0.95147109463304 0.37059231210453 
C4    C     0.97923497347983 0.11825242164800 0.30420534668053 
C5    C     0.85886814010209 0.06652252129994 0.29232791133425 
C6    C     0.75774181326689 0.03664421789509 0.32849181797679 
C7    C     0.12224802903888 0.04382191410411 0.43303595913714 
C8    C     0.14098939523219 0.18700492766874 0.36368264163767 
C9    C     0.01390825022451 0.87901823172814 0.40299523228278 
C10   C     0.03140500046876 0.17528253994703 0.26538189774122 
C11   C     0.83662051167857 0.04500521267547 0.24034168787988 
C12   C     0.72565491563678 0.08286101208519 0.37533733743490 
C13   C     0.67465174748655 0.96256450157448 0.31487930705209 
C14   C     0.19118894946130 0.12426314248200 0.44658507319141 
C15   C     0.20431813758361 0.19202524060462 0.41228747359319 
C16   C     0.12548149703172 0.96927319375461 0.46604430409879 
C17   C     0.17168113907232 0.25319993255033 0.32661265186738 
C18   C     0.07061328690134 0.88821922798416 0.45175077010730 
C19   C     0.12635652262280 0.24363505159570 0.27793621369260 
C20   C     0.99024478400176 0.16261066596893 0.21423442759103 
C21   C     0.90465025120376 0.09399515867304 0.20173893276027 
C22   C     0.62817702118408 0.04447536841275 0.40952932755414 
C23   C     0.74476302175888 0.97513613690252 0.22730979366956 
C24   C     0.77305428505427 0.17018908352512 0.38663977077577 
C25   C     0.67390748429961 0.93048386481342 0.26404112867845 
C26   C     0.58482487844296 0.92319831735976 0.35106201475552 
C27   C     0.56477609427849 0.96129143484446 0.39745797158812 
C28   C     0.73294140933073 0.21518479201295 0.42990235890228 
C29   C     0.58879599799465 0.09205929612783 0.45353461112859 
C30   C     0.64097920336796 0.17562135787489 0.46422497045057 
H1    H     0.96565278067050 0.94173969361646 0.33285585392848 
H2    H     0.97569586804318 0.81425318857053 0.39065888315850 
H3    H     0.23881604470886 0.12831385769067 0.48381062187637 
H4    H     0.26502055663091 0.25102893414134 0.42097930382934 
H5    H     0.17344737731952 0.97677699726588 0.50297980011515 
H6    H     0.24013957730840 0.30750615997667 0.33702796011639 
H7    H     0.07303553114331 0.83179166412455 0.47778393560071 
H8    H     0.16080847388120 0.28888450225115 0.24826128453160 
H9    H     0.03458794775574 0.20513763936453 0.18508727631986 
H10   H     0.88270455283642 0.07829227186555 0.16234138512540 
H11   H     0.73371209812563 0.95782683951034 0.18750204371135 
H12   H     0.83914093663163 0.20424983639255 0.35997012690671 
H13   H     0.60797221577922 0.87422848797199 0.25466871884914 
H14   H     0.52829490871570 0.86367232450293 0.33998530138224 
H15   H     0.49307630651417 0.93204032732209 0.42432532426961 
H16   H     0.77014104652591 0.28287485247471 0.43629698648437 
H17   H     0.51276079871255 0.06200044143879 0.47831438546249 
H18   H     0.60935760022700 0.21149525145730 0.49813199938442 
