data_stdin
_audit_creation_method 'critic2'
_audit_creation_date 2023-8-11
_chemical_formula_sum 'C30 H18'
_cell_formula_units_Z 8
_cell_length_a        22.3559119503
_cell_length_b        11.3565212132
_cell_length_c        15.2784406000
_cell_angle_alpha        90.0000
_cell_angle_beta        90.0000
_cell_angle_gamma        90.0011
_cell_volume          3878.972824
_space_group_crystal_system orthorhombic
_space_group_IT_number 61
_space_group_name_H-M_alt 'Pbca'
_space_group_name_Hall '-P 2ac 2ab'
loop_
_symmetry_equiv_pos_site_id
_symmetry_equiv_pos_as_xyz
 1 'x,y,z'
 2 '-x,-y,-z'
 3 '-1/2+x,-1/2-y,-z'
 4 '-1/2-x,-1/2+y,z'
 5 '-x,-1/2+y,-1/2-z'
 6 'x,-1/2-y,-1/2+z'
 7 '-1/2-x,-y,-1/2+z'
 8 '-1/2+x,y,-1/2-z'
loop_
_atom_site_label
_atom_site_type_symbol
_atom_site_fract_x
_atom_site_fract_y
_atom_site_fract_z
C1    C     0.37115048777419 0.28427953694292 0.29113967070545 
C2    C     0.42056174125286 0.23273069854924 0.33932005867679 
C3    C     0.37593409268501 0.39089509423827 0.24341488506477 
C4    C     0.47391771887746 0.29625991896711 0.36401570100780 
C5    C     0.47753118643279 0.42281651403267 0.37505651105867 
C6    C     0.42818194828772 0.49868318557399 0.39885624152270 
C7    C     0.31562167425142 0.22193455423755 0.28596774665336 
C8    C     0.41701904904492 0.11105856265223 0.36068661163829 
C9    C     0.32700433057743 0.43948908367809 0.20143730679416 
C10   C     0.52724244861365 0.22960715937126 0.37769408868314 
C11   C     0.53444433043741 0.47623188807470 0.36122309556596 
C12   C     0.37519713712722 0.45994005917121 0.44539959225984 
C13   C     0.43272904945121 0.62031085492931 0.37794765807893 
C14   C     0.31182080343128 0.10480681970236 0.31913854884606 
C15   C     0.36152773445147 0.05014370147051 0.35150352104293 
C16   C     0.26569672341775 0.27514461168615 0.24471487851181 
C17   C     0.46901214706296 0.04994215725469 0.38971267627350 
C18   C     0.27075392648928 0.38345540987136 0.20437701233810 
C19   C     0.52323469277930 0.10584796470796 0.39174644949004 
C20   C     0.58375869477622 0.28747303242896 0.37703850893634 
C21   C     0.58719796643893 0.40593225329273 0.36155181517183 
C22   C     0.32464381499659 0.53680694431002 0.45156823542977 
C23   C     0.53849557719319 0.59991306105076 0.34780719630940 
C24   C     0.37225521998761 0.35190808296053 0.49140297381434 
C25   C     0.48829084092091 0.66848829256139 0.34977230176366 
C26   C     0.38158068393077 0.69479950723553 0.38573270636628 
C27   C     0.32857288168759 0.65388126066184 0.41808471742246 
C28   C     0.32101801777221 0.31675261852547 0.53464406415677 
C29   C     0.27200378560671 0.49788382706466 0.49443107966278 
C30   C     0.26971177460601 0.38875509729877 0.53421740395271 
H1    H     0.41887506892257 0.43519825124531 0.23909249109767 
H2    H     0.33217531070446 0.52181329695037 0.16562589378815 
H3    H     0.26942156179148 0.05805393427550 0.31497017705081 
H4    H     0.35916581859643 0.95852569994692 0.37221468675916 
H5    H     0.22332067137928 0.22766044488940 0.24445012956959 
H6    H     0.46545340932875 0.95689404939361 0.40628656699031 
H7    H     0.23239672362968 0.42366742557585 0.17231804706421 
H8    H     0.56392134660447 0.05707850727589 0.40697519249748 
H9    H     0.62410753863129 0.23505565668617 0.38609979329550 
H10   H     0.63009860670979 0.45017338024896 0.35414008759740 
H11   H     0.58208297309000 0.63774175166894 0.33360012203113 
H12   H     0.41177994016188 0.29686149751171 0.49531767793372 
H13   H     0.49055608019916 0.76173170657245 0.33328161259609 
H14   H     0.38595449026814 0.78554815970571 0.36360127790555 
H15   H     0.28952507856607 0.71106707478707 0.42221085945988 
H16   H     0.32085460324266 0.23422525020683 0.57081558658181 
H17   H     0.23367344287403 0.55705181839973 0.49647466298505 
H18   H     0.22920340686521 0.35949339882616 0.56736084544225 
