data_stdin
_audit_creation_method 'critic2'
_audit_creation_date 2023-8-11
_chemical_formula_sum 'C30 H18'
_cell_formula_units_Z 4
_cell_length_a        11.5774329280
_cell_length_b        11.1272166500
_cell_length_c        16.3442583515
_cell_angle_alpha        90.0000
_cell_angle_beta        64.3605
_cell_angle_gamma        90.0001
_cell_volume          1898.218724
_space_group_crystal_system monoclinic
_space_group_IT_number 14
_space_group_name_H-M_alt 'P2_1/c'
_space_group_name_Hall '-P 2ybc'
loop_
_symmetry_equiv_pos_site_id
_symmetry_equiv_pos_as_xyz
 1 'x,y,z'
 2 '-x,-y,-z'
 3 '-x,-1/2+y,-1/2-z'
 4 'x,-1/2-y,-1/2+z'
loop_
_atom_site_label
_atom_site_type_symbol
_atom_site_fract_x
_atom_site_fract_y
_atom_site_fract_z
C1    C     0.77835658717984 0.62343974021600 0.00444017499053 
C2    C     0.82146944690170 0.59530893954755 0.07332344650429 
C3    C     0.81717615863590 0.72801590650640 0.94994462373033 
C4    C     0.88080245175648 0.67976927081912 0.11118236672336 
C5    C     0.86087998910423 0.80915480974065 0.11886825065711 
C6    C     0.75207230683211 0.87247157392853 0.11730411339953 
C7    C     0.70140697344185 0.53834692891527 0.98438227409868 
C8    C     0.80787518349414 0.47422182410742 0.10409041848616 
C9    C     0.77656600660001 0.75150731745498 0.88346421437737 
C10   C     0.96531340312139 0.63016513516748 0.14536282796615 
C11   C     0.95574116153269 0.88094273577505 0.12991480459856 
C12   C     0.62641869022117 0.82044364256209 0.14184372742937 
C13   C     0.76765745002668 0.99638901600147 0.09310869905163 
C14   C     0.67130191533946 0.42530026535671 0.03001113027593 
C15   C     0.72636943274615 0.39345308570958 0.08561834365087 
C16   C     0.65914806409134 0.56522944725018 0.91709510175614 
C17   C     0.87796370090596 0.43146434639816 0.15137947061555 
C18   C     0.69461922211921 0.67061801343883 0.86781918555950 
C19   C     0.96336075143914 0.50504414765962 0.16385361329362 
C20   C     0.05124719663039 0.70542655954392 0.16278948912639 
C21   C     0.05189116963874 0.82662175813710 0.14973624614463 
C22   C     0.53537292050041 0.88373066189599 0.12013347251339 
C23   C     0.95671427174592 0.00804839653415 0.11999073988936 
C24   C     0.58478786496162 0.71240047859590 0.19194465510560 
C25   C     0.87166728777894 0.06292886574651 0.09479002808712 
C26   C     0.67587168910862 0.05629117681636 0.07085171982080 
C27   C     0.56530820758264 0.00083161492173 0.08106087182558 
C28   C     0.46607364170081 0.66330297071097 0.21156596132682 
C29   C     0.41443166967854 0.83148178606245 0.14058986845185 
C30   C     0.38087419302285 0.72186968037330 0.18411019930768 
H1    H     0.88232617318083 0.78997133427581 0.95985678994361 
H2    H     0.80947037331989 0.83203592258537 0.84181355920199 
H3    H     0.60804350009288 0.36388252172473 0.01676691248750 
H4    H     0.70822981594460 0.30584013578706 0.11843241650891 
H5    H     0.59892004882695 0.50000043762786 0.90411549880442 
H6    H     0.86858111228447 0.33743657772984 0.17170965536655 
H7    H     0.66167123120304 0.68945066649694 0.81609373988264 
H8    H     0.02864147085440 0.47027029729723 0.19010113678901 
H9    H     0.11794315609767 0.66289885551710 0.18456605209921 
H10   H     0.12218398809044 0.88441622444333 0.15775238368020 
H11   H     0.03143322229873 0.05887896915321 0.12804853823398 
H12   H     0.64696238140668 0.66638638556790 0.21586727407141 
H13   H     0.87951432672855 0.15823270768398 0.07809025135761 
H14   H     0.69590128992560 0.14841006055374 0.04627420224886 
H15   H     0.49553910540597 0.04774913138793 0.06453440402540 
H16   H     0.43840429135540 0.57930368168981 0.24902299643844 
H17   H     0.34780261851460 0.88086788469126 0.12219804539183 
H18   H     0.28814779998049 0.68155671125360 0.19946826140486 
