data_stdin
_audit_creation_method 'critic2'
_audit_creation_date 2023-8-11
_chemical_formula_sum 'C30 H18'
_cell_formula_units_Z 4
_cell_length_a         8.3291518382
_cell_length_b         9.6575706516
_cell_length_c        24.8551147805
_cell_angle_alpha        89.9988
_cell_angle_beta        89.9971
_cell_angle_gamma        89.9997
_cell_volume          1999.329830
_space_group_crystal_system orthorhombic
_space_group_IT_number 19
_space_group_name_H-M_alt 'P2_12_12_1'
_space_group_name_Hall 'P 2ac 2ab'
loop_
_symmetry_equiv_pos_site_id
_symmetry_equiv_pos_as_xyz
 1 'x,y,z'
 2 '-1/2-x,-y,-1/2+z'
 3 '-1/2+x,-1/2-y,-z'
 4 '-x,-1/2+y,-1/2-z'
loop_
_atom_site_label
_atom_site_type_symbol
_atom_site_fract_x
_atom_site_fract_y
_atom_site_fract_z
C1    C     0.80848796091456 0.55451169092664 0.41068131386134 
C2    C     0.64551381948200 0.59338479656436 0.42491231723192 
C3    C     0.92700308597333 0.65145559384379 0.39466035208229 
C4    C     0.57192033286503 0.72494409853848 0.41156574303593 
C5    C     0.61885318087310 0.81365948284653 0.36709795121010 
C6    C     0.69260114202676 0.76781352888299 0.31734797487643 
C7    C     0.85840650204087 0.41365532048420 0.41745216987514 
C8    C     0.55516785020136 0.49829854775212 0.45661620172079 
C9    C     0.08189024779662 0.61084028390046 0.38245473960965 
C10   C     0.44373834122374 0.77184676771887 0.44522118062469 
C11   C     0.58532480660531 0.95813966498678 0.37236127859403 
C12   C     0.67537341674558 0.63002418295032 0.29467417303780 
C13   C     0.77730572274564 0.86772438982055 0.28628820781549 
C14   C     0.75159612512499 0.31603627838601 0.44134802196327 
C15   C     0.60880204327205 0.35864636260979 0.46269454117589 
C16   C     0.01676739830145 0.37404815293339 0.40358175618405 
C17   C     0.41185366338638 0.54224729500011 0.48279275775142 
C18   C     0.12691939584588 0.47051003820455 0.38586107046720 
C19   C     0.36430540984736 0.67740644111196 0.48020783189658 
C20   C     0.39424448983594 0.91292485880202 0.44376919825759 
C21   C     0.47250736225774 0.00519643395619 0.41133014646697 
C22   C     0.76839450542191 0.59228468530410 0.24842368001300 
C23   C     0.66149073377770 0.05550714932650 0.33776383359194 
C24   C     0.55929313710594 0.53306322167686 0.31253398914647 
C25   C     0.76362385920880 0.01135433025429 0.29835103313642 
C26   C     0.86869230699383 0.82671638111446 0.24045387780547 
C27   C     0.86825283321282 0.69275209656633 0.22302962074410 
C28   C     0.54616406996830 0.40296319841931 0.28983918983031 
C29   C     0.75472449581184 0.45748989154725 0.22642458755465 
C30   C     0.64787391757002 0.36271824795854 0.24735642278865 
H1    H     0.89705544945278 0.76072812883059 0.39330689278401 
H2    H     0.17053050710827 0.68855393846081 0.37125899708248 
H3    H     0.78893970735740 0.20822802579143 0.44424641758703 
H4    H     0.53259159220653 0.28613184459192 0.48454174110220 
H5    H     0.05141394567434 0.26589189205425 0.40849709942578 
H6    H     0.34365609457223 0.46774256060929 0.50638730754590 
H7    H     0.24874460358525 0.43884969539899 0.37594386560735 
H8    H     0.26108770894836 0.71371339733176 0.50301004282812 
H9    H     0.29827853130528 0.94621248265263 0.47053186125292 
H10   H     0.44469329071226 0.11536779332026 0.41276208640015 
H11   H     0.63872099557447 0.16539589566996 0.34385316781227 
H12   H     0.47617644423954 0.56259916465068 0.34410065105167 
H13   H     0.82689730373180 0.08517785691444 0.27294004768676 
H14   H     0.93691235002334 0.90541663484302 0.21902271910353 
H15   H     0.93790122526606 0.66233809394932 0.18787664697564 
H16   H     0.45348380747154 0.33211750383108 0.30387574715418 
H17   H     0.82883472183955 0.43103465658747 0.19177474155937 
H18   H     0.63724760362103 0.25956620523576 0.23013770692548 
