data_stdin
_audit_creation_method 'critic2'
_audit_creation_date 2023-8-11
_chemical_formula_sum 'C30 H18'
_cell_formula_units_Z 4
_cell_length_a        13.1120725520
_cell_length_b         9.4865412708
_cell_length_c        16.2244441055
_cell_angle_alpha        89.9992
_cell_angle_beta        75.6506
_cell_angle_gamma        90.0002
_cell_volume          1955.169058
_space_group_crystal_system monoclinic
_space_group_IT_number 14
_space_group_name_H-M_alt 'P2_1/c'
_space_group_name_Hall '-P 2ybc'
loop_
_symmetry_equiv_pos_site_id
_symmetry_equiv_pos_as_xyz
 1 'x,y,z'
 2 '-x,-y,-z'
 3 '-x,-1/2+y,-1/2-z'
 4 'x,-1/2-y,-1/2+z'
loop_
_atom_site_label
_atom_site_type_symbol
_atom_site_fract_x
_atom_site_fract_y
_atom_site_fract_z
C1    C     0.19092061573452 0.60824930594041 0.88553771711959 
C2    C     0.15852790015676 0.58787796551784 0.97706628892063 
C3    C     0.22345048783191 0.49629225349139 0.82717480528778 
C4    C     0.17666270118822 0.46057419613406 0.02046762546657 
C5    C     0.25967244928864 0.35889744691097 0.98838354530134 
C6    C     0.36173638228840 0.39031672340964 0.93289033533633 
C7    C     0.17873031090622 0.74422910454941 0.85061768526590 
C8    C     0.09687699188462 0.69621313975324 0.02627217627534 
C9    C     0.24717754100709 0.51745450530368 0.74016105728434 
C10   C     0.10448791200632 0.42948635851905 0.10001427219518 
C11   C     0.23838801554794 0.21578255453832 0.01431288367511 
C12   C     0.41304029160711 0.52661835773999 0.92738701115004 
C13   C     0.41812284749834 0.27803909100889 0.88365030908499 
C14   C     0.13287030197334 0.85689469978419 0.90563582433777 
C15   C     0.08933596946216 0.83150630765399 0.98973892780816 
C16   C     0.20406275159111 0.76357643561080 0.76134423001871 
C17   C     0.03958287991582 0.66942365353045 0.11150279517400 
C18   C     0.23818271541354 0.65239708157857 0.70651585003008 
C19   C     0.03777799794982 0.53705508796202 0.14508667433799 
C20   C     0.09678196715261 0.28972621915341 0.13286146816830 
C21   C     0.15543015351122 0.18397901874372 0.08686786776977 
C22   C     0.50709678229457 0.55058969313960 0.86184559544085 
C23   C     0.30112902512228 0.10552254813275 0.96807766059757 
C24   C     0.38090673747442 0.63470245043492 0.98853622027284 
C25   C     0.38385932572204 0.13613271233364 0.90063504018784 
C26   C     0.51159613341400 0.30569741102064 0.81901454843663 
C27   C     0.55235631229329 0.43849059183124 0.80632130063181 
C28   C     0.43298348764134 0.76240426111301 0.98155493202633 
C29   C     0.55799207530696 0.68323976115002 0.85535427227154 
C30   C     0.52063865346584 0.78896763611183 0.91323591207143 
H1    H     0.22603123753006 0.38988800941155 0.85090584812478 
H2    H     0.27000258250125 0.42780911463585 0.69771851140933 
H3    H     0.12814755052392 0.96099744625769 0.87836862354926 
H4    H     0.04679498622238 0.91421008370738 0.03085641825691 
H5    H     0.19291188341841 0.86740909221830 0.73623855567608 
H6    H     0.99183663761717 0.75390715976601 0.14704012052488 
H7    H     0.25540535315241 0.66881350395006 0.63803316612217 
H8    H     0.98537581187161 0.51138643408987 0.20655458100027 
H9    H     0.03799056109014 0.26776582033175 0.19179604606052 
H10   H     0.14263960012509 0.07440721053989 0.10673978577396 
H11   H     0.28014717350075 0.99667586715528 0.98578863432678 
H12   H     0.31642246294078 0.61510152506670 0.04378057674239 
H13   H     0.42901201378640 0.05216169975681 0.86249566738558 
H14   H     0.55039456070680 0.21812626691824 0.78032932584355 
H15   H     0.62342903887998 0.45880402930953 0.75648734131774 
H16   H     0.40817911962466 0.84189237798949 0.03079526841704 
H17   H     0.62857698781183 0.69906341611240 0.80416886646413 
H18   H     0.56068680202211 0.89019748063002 0.90839101074657 
