data_stdin
_audit_creation_method 'critic2'
_audit_creation_date 2023-8-11
_chemical_formula_sum 'C30 H18'
_cell_formula_units_Z 4
_cell_length_a         9.2348304309
_cell_length_b        12.6591131002
_cell_length_c        20.1811952780
_cell_angle_alpha        90.0004
_cell_angle_beta        57.2451
_cell_angle_gamma        90.0001
_cell_volume          1984.136490
_space_group_crystal_system monoclinic
_space_group_IT_number 14
_space_group_name_H-M_alt 'P2_1/c'
_space_group_name_Hall '-P 2ybc'
loop_
_symmetry_equiv_pos_site_id
_symmetry_equiv_pos_as_xyz
 1 'x,y,z'
 2 '-x,-y,-z'
 3 '-x,-1/2+y,-1/2-z'
 4 'x,-1/2-y,-1/2+z'
loop_
_atom_site_label
_atom_site_type_symbol
_atom_site_fract_x
_atom_site_fract_y
_atom_site_fract_z
C1    C     0.90036117473527 0.65292229129683 0.21742340874474 
C2    C     0.75387725549618 0.68923270624404 0.29208984101648 
C3    C     0.06623483474789 0.63721970258619 0.20382702196527 
C4    C     0.76639130187810 0.73669678122308 0.35391426408385 
C5    C     0.91624203160928 0.79162514923179 0.34204234659362 
C6    C     0.03949622846221 0.84899847299376 0.27161303218260 
C7    C     0.87481722731196 0.62126961474099 0.15638265456443 
C8    C     0.58664296537782 0.67121295385081 0.30724360757337 
C9    C     0.20199010465136 0.60049135614185 0.13236045817691 
C10   C     0.62144828136786 0.72785242655144 0.43297929930398 
C11   C     0.94233071324099 0.78947056733610 0.40551829123083 
C12   C     0.00197274754831 0.89503929728492 0.21666245612437 
C13   C     0.20587032220588 0.86675509032124 0.25770137919592 
C14   C     0.70534541133094 0.62021747855824 0.17102473446642 
C15   C     0.56595811661772 0.64089279497501 0.24465519280453 
C16   C     0.01629603892483 0.58504093657962 0.08346828492337 
C17   C     0.43937864315049 0.67983719309131 0.38541280752266 
C18   C     0.17851868566913 0.57604459802135 0.07070846103140 
C19   C     0.45720365040028 0.70071360572729 0.44718592342444 
C20   C     0.64320801077725 0.74297712447359 0.49706474983375 
C21   C     0.80351624165441 0.76270692909396 0.48281885385210 
C22   C     0.13943826543922 0.93909012055315 0.14421151166947 
C23   C     0.10669574662972 0.81548391896282 0.39133435912929 
C24   C     0.83266041871682 0.90839377150516 0.23380053740757 
C25   C     0.23814252660937 0.84558925309082 0.31787612757931 
C26   C     0.34005793221968 0.90933746587750 0.18433816032616 
C27   C     0.30960354077512 0.94137336131026 0.12843143145435 
C28   C     0.80166090688667 0.95470362025879 0.18063451827946 
C29   C     0.10466228369751 0.98569620488574 0.09039608524175 
C30   C     0.93860305480862 0.99242210785932 0.10754965689646 
H1    H     0.08628996294105 0.65046637389603 0.25139967609887 
H2    H     0.32705831439839 0.58799028709913 0.12453313972389 
H3    H     0.68868171127195 0.59730368329982 0.12348544119532 
H4    H     0.43572149090321 0.63465292889517 0.25722866061993 
H5    H     0.99299855298955 0.56152664163417 0.03812677707126 
H6    H     0.31332387787400 0.66387377306754 0.39530513720065 
H7    H     0.28603551773668 0.54710255215079 0.01456302245794 
H8    H     0.34642272475378 0.69911646927659 0.50767993202093 
H9    H     0.53225789920844 0.73186143311699 0.55679483595490 
H10   H     0.82577938743278 0.76246012285069 0.53060571840941 
H11   H     0.12627084713029 0.80891751169657 0.43974937144305 
H12   H     0.72393081083049 0.88434654066689 0.29084986800076 
H13   H     0.36670604673406 0.85993146559482 0.30563491045255 
H14   H     0.46788233988304 0.91709729639520 0.17431190725481 
H15   H     0.41267547949824 0.97476953406544 0.07290826879213 
H16   H     0.66950652349061 0.96402618375084 0.19640616807996 
H17   H     0.21158378267409 0.01932036278425 0.03602713643837 
H18   H     0.91323885054329 0.02960763597446 0.06616590149379 
