data_stdin
_audit_creation_method 'critic2'
_audit_creation_date 2023-8-11
_chemical_formula_sum 'C30 H18'
_cell_formula_units_Z 2
_cell_length_a         8.0752501363
_cell_length_b        14.4332633741
_cell_length_c         9.6002004698
_cell_angle_alpha        78.6125
_cell_angle_beta        80.2480
_cell_angle_gamma        63.9201
_cell_volume           980.870862
_space_group_crystal_system triclinic
_space_group_IT_number 2
_space_group_name_H-M_alt 'P-1'
_space_group_name_Hall '-P 1'
loop_
_symmetry_equiv_pos_site_id
_symmetry_equiv_pos_as_xyz
 1 'x,y,z'
 2 '-x,-y,-z'
loop_
_atom_site_label
_atom_site_type_symbol
_atom_site_fract_x
_atom_site_fract_y
_atom_site_fract_z
C1    C     0.38197220522612 0.20860627328861 0.25893229300024 
C2    C     0.35954949607399 0.11202042374206 0.29404613496885 
C3    C     0.30599366126378 0.28746256294380 0.34864930134596 
C4    C     0.22681596816645 0.09427142628145 0.40472944743798 
C5    C     0.05264196699534 0.17424690669874 0.45417969589744 
C6    C     0.94908693129484 0.27221015531871 0.36992383106503 
C7    C     0.50011731179123 0.22242371636641 0.13518368669690 
C8    C     0.48484138598369 0.02699934302894 0.22168259006839 
C9    C     0.33494007458860 0.37716458696416 0.31423009442196 
C10   C     0.27150276293078 0.98977561358397 0.47144053694306 
C11   C     0.97731397560382 0.15421295105179 0.59656742163955 
C12   C     0.96319537356595 0.29011120459670 0.21516349193412 
C13   C     0.82004729952371 0.35631632466286 0.44279028496481 
C14   C     0.59956415390569 0.13950355495373 0.05179825396761 
C15   C     0.59749430935619 0.04428194916973 0.09688797684294 
C16   C     0.52657803043949 0.31532833946904 0.10157073733929 
C17   C     0.50220542640282 0.92406360813044 0.27558418647090 
C18   C     0.44428064358769 0.39224127701692 0.18875395719124 
C19   C     0.40910589472305 0.90541841252572 0.40298997871989 
C20   C     0.17811012370194 0.97010590280702 0.60566219722544 
C21   C     0.04551335885099 0.05102626981565 0.67120655451018 
C22   C     0.89041817115789 0.39476814148593 0.14353600985743 
C23   C     0.83299126323812 0.23775928563195 0.66217847208658 
C24   C     0.03222697106264 0.20872625023334 0.13001264534191 
C25   C     0.76585532842955 0.33707270502984 0.59081364771420 
C26   C     0.74544330530533 0.45971262784457 0.36755488669709 
C27   C     0.78837464749254 0.47925943340616 0.22417221371046 
C28   C     0.04193632269436 0.22928680110520 0.98261417028305 
C29   C     0.90970943654743 0.41364192091750 0.99257906252092 
C30   C     0.98634038334213 0.33233428215245 0.91262602444751 
H1    H     0.22658324861023 0.27642822134310 0.44851591530487 
H2    H     0.27300078682526 0.43600788482718 0.38584785791591 
H3    H     0.68464001057916 0.15185875111949 0.95560425017438 
H4    H     0.68104485816363 0.97943524559777 0.03736841121892 
H5    H     0.61908293962723 0.32364993800846 0.00801667776566 
H6    H     0.59855188345318 0.86038766705147 0.21757420484341 
H7    H     0.46795879097829 0.46256105382160 0.16259492709834 
H8    H     0.43353659438053 0.82638122986360 0.45236288992504 
H9    H     0.22026961251143 0.88991668520456 0.65728645985415 
H10   H     0.98365769972894 0.03723274767885 0.77879965496441 
H11   H     0.78106001537271 0.22172199098194 0.77219892944613 
H12   H     0.07429036120060 0.12880644891067 0.18188008172515 
H13   H     0.66415273672508 0.40191058600975 0.64453203329327 
H14   H     0.65457496993078 0.52325679714935 0.42778323952802 
H15   H     0.73706709963540 0.55848731167790 0.16770199912066 
H16   H     0.09045841006939 0.16568748550519 0.91956294534452 
H17   H     0.85809691335304 0.49390287746730 0.94045755069617 
H18   H     0.99774149123277 0.34776529483337 0.79650546559250 
