data_stdin
_audit_creation_method 'critic2'
_audit_creation_date 2023-8-11
_chemical_formula_sum 'C30 H18'
_cell_formula_units_Z 2
_cell_length_a        11.1546250277
_cell_length_b        10.4040336648
_cell_length_c         8.9205090452
_cell_angle_alpha        88.4810
_cell_angle_beta        68.3536
_cell_angle_gamma        85.8509
_cell_volume           959.722768
_space_group_crystal_system triclinic
_space_group_IT_number 2
_space_group_name_H-M_alt 'P-1'
_space_group_name_Hall '-P 1'
loop_
_symmetry_equiv_pos_site_id
_symmetry_equiv_pos_as_xyz
 1 'x,y,z'
 2 '-x,-y,-z'
loop_
_atom_site_label
_atom_site_type_symbol
_atom_site_fract_x
_atom_site_fract_y
_atom_site_fract_z
C1    C     0.21069425940915 0.44198742435911 0.94587786054033 
C2    C     0.12552741285702 0.36877018306317 0.07825855414358 
C3    C     0.20358248215307 0.44881914824951 0.79066053693253 
C4    C     0.04746039539997 0.26904973992159 0.06072192449633 
C5    C     0.06998959706796 0.19760951947383 0.91397344807635 
C6    C     0.19422304567847 0.17190610883668 0.78568773893822 
C7    C     0.30529353452485 0.51491895077709 0.97225179702828 
C8    C     0.11869155660707 0.39734222625949 0.23659868238883 
C9    C     0.29513891527121 0.50871477659109 0.66413299936837 
C10   C     0.93891404892913 0.23711059490924 0.19966856688723 
C11   C     0.96086157625741 0.14520837895181 0.89671867345262 
C12   C     0.31764831518045 0.16903271480454 0.80593948783016 
C13   C     0.19600263071923 0.14026031029496 0.63056052257815 
C14   C     0.30374325309175 0.52885373703731 0.13153775364045 
C15   C     0.20965547399789 0.47680003528657 0.25936805572931 
C16   C     0.39789917552556 0.57558322472567 0.84058647162808 
C17   C     0.02184300846521 0.34613365653908 0.37405951465278 
C18   C     0.39585472895238 0.56920660667581 0.68727379570258 
C19   C     0.92982679754259 0.27517542609963 0.35564465116917 
C20   C     0.83954863229974 0.16767857556956 0.18264100542033 
C21   C     0.84539871601144 0.13288799468838 0.03353616635605 
C22   C     0.43444152361619 0.16608010269996 0.66617774510961 
C23   C     0.96860384842752 0.10232659300792 0.74308475007762 
C24   C     0.33006163653528 0.15891622255070 0.95847700234217 
C25   C     0.08041302617182 0.10876083453038 0.61139799769706 
C26   C     0.31440503492856 0.13581539458672 0.49403335066385 
C27   C     0.42917193223722 0.15371149924188 0.50986223975375 
C28   C     0.44916520420811 0.15723899876412 0.97346051093208 
C29   C     0.55491232337808 0.16845402013564 0.68488463490720 
C30   C     0.56279909169488 0.16586627740876 0.83576003955421 
H1    H     0.12422166591030 0.40720619619146 0.77083704592535 
H2    H     0.28900555329129 0.51006185812556 0.54525763738687 
H3    H     0.37644170769346 0.58448484237293 0.14938575584179 
H4    H     0.20298143696028 0.49261546892089 0.38240611481050 
H5    H     0.47092525265649 0.62754087309897 0.86320170226393 
H6    H     0.01977467579937 0.36832362439245 0.49365714643919 
H7    H     0.46908279621964 0.61340729942365 0.58589908239985 
H8    H     0.84977308996108 0.24383903769019 0.46035298696743 
H9    H     0.75674669589195 0.14692409384151 0.29011291906733 
H10   H     0.76526397198253 0.08795091381999 0.01879697219350 
H11   H     0.88248196268824 0.06680674144525 0.73255297602702 
H12   H     0.24400958837655 0.15066334952252 0.06614066403214 
H13   H     0.08444451475763 0.08443602257411 0.49162150102681 
H14   H     0.31091969174570 0.11684452425245 0.37621551799485 
H15   H     0.51881633658989 0.15113107667913 0.40472041097411 
H16   H     0.45542823321912 0.14745728289339 0.09221404828901 
H17   H     0.64217896348092 0.16897160010987 0.57666535730866 
H18   H     0.65603981143436 0.16769010875240 0.84849904804908 
