data_stdin
_audit_creation_method 'critic2'
_audit_creation_date 2023-8-11
_chemical_formula_sum 'C30 H18'
_cell_formula_units_Z 4
_cell_length_a         9.7802245847
_cell_length_b        15.0706529313
_cell_length_c        16.1867086505
_cell_angle_alpha        90.0004
_cell_angle_beta        54.5301
_cell_angle_gamma        89.9989
_cell_volume          1943.068195
_space_group_crystal_system monoclinic
_space_group_IT_number 14
_space_group_name_H-M_alt 'P2_1/c'
_space_group_name_Hall '-P 2ybc'
loop_
_symmetry_equiv_pos_site_id
_symmetry_equiv_pos_as_xyz
 1 'x,y,z'
 2 '-x,-y,-z'
 3 '-x,-1/2+y,-1/2-z'
 4 'x,-1/2-y,-1/2+z'
loop_
_atom_site_label
_atom_site_type_symbol
_atom_site_fract_x
_atom_site_fract_y
_atom_site_fract_z
C1    C     0.07986126183144 0.66317811793841 0.52576529513484 
C2    C     0.98669079497766 0.68041400172863 0.48293819702992 
C3    C     0.04188957019999 0.70335557278407 0.61603703104484 
C4    C     0.87530505721536 0.75524216500049 0.50973009885512 
C5    C     0.88060246288357 0.83812118573734 0.55367632135589 
C6    C     0.02811531732547 0.87610350012440 0.54017388103636 
C7    C     0.21093425002240 0.59813135770125 0.47903871386565 
C8    C     0.00209390881645 0.61756665679820 0.41228203794284 
C9    C     0.13885124014627 0.68835765835416 0.65159261141547 
C10   C     0.74777990423029 0.74689221827693 0.49272500850520 
C11   C     0.72701379014367 0.88643172113720 0.61481781415519 
C12   C     0.19909933309618 0.85813530617273 0.45447202749370 
C13   C     0.00436323699948 0.93911558157619 0.61287941716462 
C14   C     0.23345012724811 0.54296337011554 0.40042512340731 
C15   C     0.12754757139784 0.54996175310591 0.37168178691106 
C16   C     0.31129468854765 0.58557034614107 0.51508746816595 
C17   C     0.88988802475507 0.62018757691035 0.38317743015524 
C18   C     0.27895818073248 0.63132040231955 0.59863482642852 
C19   C     0.75976409285548 0.67933941039115 0.42729330606848 
C20   C     0.60681015532099 0.80502241150985 0.54251026324095 
C21   C     0.59078417025622 0.86794759295913 0.60846032662026 
C22   C     0.33553181833847 0.88692595389108 0.45747882661546 
C23   C     0.71058935296821 0.95404216876891 0.68123989340787 
C24   C     0.23964312729430 0.82024654096801 0.36284573883241 
C25   C     0.84251948765314 0.97522855376150 0.68512675390006 
C26   C     0.14329401953420 0.96722567700048 0.61322046682259 
C27   C     0.30191044674681 0.93790137815961 0.54162838612409 
C28   C     0.40399552099253 0.80635857918335 0.28133947946329 
C29   C     0.50327485494016 0.87023841807117 0.37376425508086 
C30   C     0.53781142670969 0.82977075899786 0.28701317450113 
H1    H     0.93417818462817 0.74710314524068 0.65899131576305 
H2    H     0.10594616851328 0.72152316218231 0.72070226482604 
H3    H     0.32955182079213 0.49156475772723 0.36843931135855 
H4    H     0.13596101381586 0.50338308865826 0.31744067480168 
H5    H     0.41336744800153 0.53751347650700 0.47619771319095 
H6    H     0.90430695193958 0.57131727678024 0.32924348228317 
H7    H     0.35854906191299 0.62193028967525 0.62476006871213 
H8    H     0.66530991691610 0.67715063471808 0.41170137089883 
H9    H     0.50817314043263 0.79431609517543 0.53158090128894 
H10   H     0.47599827551169 0.90659837209942 0.65529307773241 
H11   H     0.59086700271631 0.98828901969366 0.72855076554442 
H12   H     0.13926354175090 0.80399163546480 0.35534653812882 
H13   H     0.82890414626400 0.02445572821351 0.73867470014002 
H14   H     0.11927037053796 0.01320502147100 0.67227746018666 
H15   H     0.40621037482324 0.95701121294094 0.54452797383609 
H16   H     0.43072488066683 0.77714218861614 0.21205014517801 
H17   H     0.60508601531647 0.89142804914566 0.37853375502329 
H18   H     0.66683906446525 0.81786861557688 0.22253324090435 
