data_stdin
_audit_creation_method 'critic2'
_audit_creation_date 2023-8-11
_chemical_formula_sum 'C30 H18'
_cell_formula_units_Z 8
_cell_length_a        16.4118693958
_cell_length_b         9.6080168337
_cell_length_c        25.3602838298
_cell_angle_alpha        90.0016
_cell_angle_beta        88.8719
_cell_angle_gamma        89.9998
_cell_volume          3998.174423
_space_group_crystal_system monoclinic
_space_group_IT_number 15
_space_group_name_H-M_alt 'C2/c'
_space_group_name_Hall '-C 2yc'
loop_
_symmetry_equiv_pos_site_id
_symmetry_equiv_pos_as_xyz
 1 'x,y,z'
 2 '-x,-y,-z'
 3 '-x,y,-1/2-z'
 4 '-1/2+x,-1/2-y,-1/2+z'
 5 '-1/2+x,-1/2+y,z'
 6 '-1/2-x,-1/2-y,-z'
 7 '-1/2-x,-1/2+y,-1/2-z'
 8 'x,-y,-1/2+z'
loop_
_atom_site_label
_atom_site_type_symbol
_atom_site_fract_x
_atom_site_fract_y
_atom_site_fract_z
C1    C     0.19317312210816 0.23680830279830 0.93243110231775 
C2    C     0.17677907867583 0.37593791663439 0.91290919290722 
C3    C     0.27278435671803 0.18591545206809 0.94112707420802 
C4    C     0.23717547055890 0.46537032150046 0.88804365856249 
C5    C     0.31215380718347 0.41859860444827 0.86233112035657 
C6    C     0.32419638196550 0.28501532869621 0.83708410504914 
C7    C     0.12649576012725 0.15026453228158 0.94908073286800 
C8    C     0.09721395984429 0.43101364245313 0.92229360937956 
C9    C     0.28609912510227 0.05420524258108 0.96103275290240 
C10   C     0.22336942859570 0.61208210839234 0.89017979037997 
C11   C     0.37925619220524 0.51310230186759 0.86174777961270 
C12   C     0.25906807045893 0.19973760895124 0.81661844998474 
C13   C     0.40548158226667 0.23597307548942 0.82962678800457 
C14   C     0.04565067245431 0.20475083197488 0.95015389284939 
C15   C     0.03231220297659 0.34211218074719 0.93967168915952 
C16   C     0.14164764440296 0.01453023307056 0.96831826329078 
C17   C     0.08196081077592 0.57590148501498 0.91592256581369 
C18   C     0.22013985490914 0.96614170350116 0.97394930389094 
C19   C     0.14454574802856 0.66472223691959 0.90347985822582 
C20   C     0.28871646076758 0.70670616410297 0.88030180036297 
C21   C     0.36580271735086 0.65752246140998 0.87102278632397 
C22   C     0.27584875749826 0.05863271145685 0.80193919369336 
C23   C     0.45944892961671 0.46373540841692 0.85041427983066 
C24   C     0.18034208320152 0.25224558163443 0.80616700706129 
C25   C     0.47252492005514 0.32697782243639 0.83786447854438 
C26   C     0.42036548662199 0.09550493477190 0.81355849793824 
C27   C     0.35749020361403 0.00748184715308 0.80285271374906 
C28   C     0.12030055378308 0.16818050838450 0.78576657053246 
C29   C     0.21229090958607 0.97306079845385 0.78334957938973 
C30   C     0.13546881775376 0.02637508344178 0.77540726045410 
H1    H     0.32464784800470 0.25388268694002 0.93430990269650 
H2    H     0.34806895607499 0.02031046591490 0.96855707543862 
H3    H     0.99541235006367 0.13648033438718 0.96169684357459 
H4    H     0.97152537925336 0.38680203593831 0.94415834958772 
H5    H     0.08975292520901 0.94998234292464 0.97993512331617 
H6    H     0.02059626515392 0.61520564469839 0.92370881276795 
H7    H     0.23092606703343 0.86282570989482 0.98992098375292 
H8    H     0.13530464978378 0.77693851677405 0.90275860452541 
H9    H     0.27661281236081 0.81794511774787 0.88294288279762 
H10   H     0.41767421288573 0.72798198709515 0.86812179783224 
H11   H     0.51014198000906 0.53646053160692 0.85272245780347 
H12   H     0.16757389078075 0.36175903400658 0.81281397862569 
H13   H     0.53401424141469 0.28711803857500 0.83136753198143 
H14   H     0.48344487350769 0.06027544925161 0.81063180487277 
H15   H     0.36852115645875 0.89925954261278 0.79208835659483 
H16   H     0.06082189966206 0.21255797219734 0.77738471675642 
H17   H     0.22604663276081 0.86512032047002 0.77362120713433 
H18   H     0.08782004325459 0.96056151120235 0.75965680787528 
