data_stdin
_audit_creation_method 'critic2'
_audit_creation_date 2023-8-11
_chemical_formula_sum 'C30 H18'
_cell_formula_units_Z 4
_cell_length_a         7.9689621010
_cell_length_b        11.5284576601
_cell_length_c        21.3780755015
_cell_angle_alpha        90.0004
_cell_angle_beta        74.6963
_cell_angle_gamma        89.9998
_cell_volume          1894.357862
_space_group_crystal_system monoclinic
_space_group_IT_number 14
_space_group_name_H-M_alt 'P2_1/c'
_space_group_name_Hall '-P 2ybc'
loop_
_symmetry_equiv_pos_site_id
_symmetry_equiv_pos_as_xyz
 1 'x,y,z'
 2 '-x,-y,-z'
 3 '-x,-1/2+y,-1/2-z'
 4 'x,-1/2-y,-1/2+z'
loop_
_atom_site_label
_atom_site_type_symbol
_atom_site_fract_x
_atom_site_fract_y
_atom_site_fract_z
C1    C     0.09665244051369 0.82059606896700 0.55083469638835 
C2    C     0.01215770150775 0.87314784984366 0.61288069069461 
C3    C     0.05126004925431 0.71011391562807 0.53129524904809 
C4    C     0.90955198803717 0.81071797170187 0.66880899084154 
C5    C     0.92429932585853 0.68774014286874 0.68122324202552 
C6    C     0.07771764083140 0.61762511579015 0.65569666697783 
C7    C     0.22511575110568 0.88550140139504 0.50461042991319 
C8    C     0.02754551015573 0.99555281121761 0.61827528831319 
C9    C     0.13466065901014 0.66323330525843 0.47165914687620 
C10   C     0.78352665970076 0.87525283056778 0.71584322694299 
C11   C     0.77580410547783 0.63146018108198 0.72216909882159 
C12   C     0.25323689050171 0.66312676791592 0.63544362337295 
C13   C     0.05671278258854 0.49548408117662 0.65224639997305 
C14   C     0.25672157452256 0.00374645791331 0.51733864832380 
C15   C     0.15400613274165 0.05814308616057 0.57044186659720 
C16   C     0.31368995024247 0.83391548710837 0.44496134554427 
C17   C     0.91678268079412 0.05627095865211 0.67133722062224 
C18   C     0.27035258851602 0.72418936195131 0.42861717664308 
C19   C     0.79004033380314 0.99866287725967 0.71609935996628 
C20   C     0.65029137109270 0.81658428723398 0.76261264543077 
C21   C     0.63885832463729 0.69832533109953 0.76219596841874 
C22   C     0.38989282170523 0.59136614516988 0.59803935227936 
C23   C     0.76544725665059 0.50817513307205 0.72340505687008 
C24   C     0.29934677282616 0.77398583028035 0.65408065609768 
C25   C     0.89700294973173 0.44261084233013 0.68595355342848 
C26   C     0.19686836178795 0.42558823368499 0.61615675946482 
C27   C     0.35553364023747 0.47270950904826 0.58707531157988 
C28   C     0.46632139857112 0.81656840489940 0.63126586187489 
C29   C     0.55948300498787 0.63770844059592 0.57455971020152 
C30   C     0.59655580858912 0.74958796337548 0.58951598359029 
H1    H     0.94707229276217 0.66135063114645 0.56345710281355 
H2    H     0.09421809040898 0.57907942204587 0.45763711061720 
H3    H     0.35769242108504 0.05106246437345 0.48243887742219 
H4    H     0.16761601141354 0.15087043829499 0.57752740140034 
H5    H     0.41437995362114 0.88422306766116 0.41154514647461 
H6    H     0.93102381668836 0.14991054409567 0.67403877800775 
H7    H     0.33726077328231 0.68564009795704 0.38229786882837 
H8    H     0.69750868210194 0.04541535681223 0.75443360352817 
H9    H     0.55480633714255 0.86879207979275 0.79690536151478 
H10   H     0.52876699105378 0.65317767082630 0.79396729341621 
H11   H     0.64847977990695 0.46756182455130 0.75348553180410 
H12   H     0.20199713916889 0.82638608948548 0.68714630895208 
H13   H     0.88553701330766 0.34863150582248 0.68400355203065 
H14   H     0.17392955172054 0.33310363325178 0.61216591833995 
H15   H     0.46013816490301 0.41922530060249 0.55807712150192 
H16   H     0.49862061017863 0.90226725521240 0.64605175368324 
H17   H     0.66065202211879 0.58252747102776 0.54485349033110 
H18   H     0.72647120717704 0.78509299768550 0.57085852523072 
