data_stdin
_audit_creation_method 'critic2'
_audit_creation_date 2023-8-11
_chemical_formula_sum 'C30 H18'
_cell_formula_units_Z 4
_cell_length_a        12.0008585761
_cell_length_b        11.2834621300
_cell_length_c        15.4889502254
_cell_angle_alpha        90.0001
_cell_angle_beta        69.0562
_cell_angle_gamma        89.9999
_cell_volume          1958.806629
_space_group_crystal_system monoclinic
_space_group_IT_number 14
_space_group_name_H-M_alt 'P2_1/c'
_space_group_name_Hall '-P 2ybc'
loop_
_symmetry_equiv_pos_site_id
_symmetry_equiv_pos_as_xyz
 1 'x,y,z'
 2 '-x,-y,-z'
 3 '-x,-1/2+y,-1/2-z'
 4 'x,-1/2-y,-1/2+z'
loop_
_atom_site_label
_atom_site_type_symbol
_atom_site_fract_x
_atom_site_fract_y
_atom_site_fract_z
C1    C     0.85665029686730 0.22071692015980 0.05303928388435 
C2    C     0.82434750466185 0.12375012180970 0.00506237261330 
C3    C     0.78576420359372 0.25717261240549 0.14357929654821 
C4    C     0.70531177545394 0.07521915488636 0.03067409940950 
C5    C     0.59539492370902 0.13739053349718 0.08213101214536 
C6    C     0.57797290199619 0.26454434151365 0.08330823484984 
C7    C     0.96992191457470 0.27744674781977 0.01088461332628 
C8    C     0.91749052434049 0.07031817553461 0.93027658786604 
C9    C     0.82028466642741 0.35003795969393 0.18674735080728 
C10   C     0.69469629612697 0.95599252232965 0.00337724316811 
C11   C     0.49531100402320 0.06664993984676 0.13442120913390 
C12   C     0.64709548149263 0.34507516788660 0.01090523906533 
C13   C     0.48223308169440 0.31410286996300 0.15829030577983 
C14   C     0.05441179504833 0.23041914894035 0.92772338952535 
C15   C     0.03125476744373 0.12667458006456 0.89214138782824 
C16   C     0.00094719135327 0.37494899840709 0.05502937256471 
C17   C     0.89803532182327 0.95980858591617 0.89365434621426 
C18   C     0.92687247729511 0.41221501814456 0.14135666344939 
C19   C     0.79227399958925 0.90113863677092 0.93315332914083 
C20   C     0.58706606271422 0.89191918994535 0.04721446649064 
C21   C     0.49453667981808 0.94301896295409 0.11654271215140 
C22   C     0.63563076150507 0.47022562894047 0.02727206711685 
C23   C     0.39542084586334 0.11985100935189 0.20367646914838 
C24   C     0.71964173068004 0.30738044743483 0.92118875601082 
C25   C     0.39343380003461 0.23913942601536 0.21946938801032 
C26   C     0.47237389755771 0.43931678637256 0.17170601850546 
C27   C     0.54989572746884 0.51484701369496 0.11065809736819 
C28   C     0.78469902652055 0.38672050000764 0.85396415029009 
C29   C     0.70498699597066 0.54925838496101 0.95818560964671 
C30   C     0.77967824446330 0.50888156704135 0.87313723397520 
H1    H     0.70402237708465 0.20965828190704 0.18095688152928 
H2    H     0.76565596828756 0.37427607651681 0.25719750230240 
H3    H     0.14008652927022 0.27511496939713 0.89717370664762 
H4    H     0.09937703378124 0.08425808063351 0.83375003662093 
H5    H     0.08592035869719 0.41898991774956 0.02049536094896 
H6    H     0.97121124130361 0.91955962901080 0.83755039729265 
H7    H     0.95213346775370 0.48699633387780 0.17488038612874 
H8    H     0.78027261226154 0.81251581363470 0.91013119481249 
H9    H     0.58095897381754 0.80070199161239 0.02645129153985 
H10   H     0.41657087924175 0.89127384550243 0.15615135187418 
H11   H     0.32304397585299 0.06295002924605 0.24558196728821 
H12   H     0.72370718284159 0.21379406765038 0.90432210156359 
H13   H     0.32145878734390 0.27999490991757 0.27617645666062 
H14   H     0.40104854045176 0.47317599309169 0.23228770282305 
H15   H     0.54315674299059 0.61014095856418 0.12241532932836 
H16   H     0.83870363533926 0.35358109379566 0.78581764666933 
H17   H     0.69593543151340 0.64378884531671 0.97297339937423 
H18   H     0.83226351930293 0.57156113345935 0.82103609277858 
