data_stdin
_audit_creation_method 'critic2'
_audit_creation_date 2023-8-11
_chemical_formula_sum 'C30 H18'
_cell_formula_units_Z 8
_cell_length_a        28.7819141779
_cell_length_b        10.5341073001
_cell_length_c        13.0987470214
_cell_angle_alpha        90.0000
_cell_angle_beta        89.9995
_cell_angle_gamma        90.0003
_cell_volume          3971.432323
_space_group_crystal_system orthorhombic
_space_group_IT_number 60
_space_group_name_H-M_alt 'Pbcn'
_space_group_name_Hall '-P 2n 2ab'
loop_
_symmetry_equiv_pos_site_id
_symmetry_equiv_pos_as_xyz
 1 'x,y,z'
 2 '-x,-y,-z'
 3 '-1/2-x,-1/2-y,-1/2+z'
 4 '-1/2+x,-1/2+y,-1/2-z'
 5 '-1/2+x,-1/2-y,-z'
 6 '-1/2-x,-1/2+y,z'
 7 '-x,y,-1/2-z'
 8 'x,-y,-1/2+z'
loop_
_atom_site_label
_atom_site_type_symbol
_atom_site_fract_x
_atom_site_fract_y
_atom_site_fract_z
C1    C     0.62667695328273 0.48932316626644 0.07925527454705 
C2    C     0.67474889380437 0.46220652599225 0.05471154891040 
C3    C     0.60363851886386 0.43607896639635 0.16454389186373 
C4    C     0.70055141283951 0.35578352707835 0.09522196187425 
C5    C     0.68019484999691 0.23985241484393 0.13497722839358 
C6    C     0.63576268311410 0.18702561002165 0.10505144117818 
C7    C     0.60159514809955 0.57985077474364 0.01911608366094 
C8    C     0.69824275189165 0.54857940877975 0.98928008592327 
C9    C     0.55697816555832 0.45767517750810 0.18212344950190 
C10   C     0.75003822402639 0.36588783985560 0.09752823845490 
C11   C     0.70645958125212 0.17132714339777 0.20912434925764 
C12   C     0.61339760639692 0.20898573017809 0.00729865512140 
C13   C     0.61325418067852 0.10296923896013 0.17433279309683 
C14   C     0.62572217270046 0.65367306248330 0.94465954396483 
C15   C     0.67274143880032 0.64244730211200 0.93410060079738 
C16   C     0.55364786517400 0.59883069708303 0.03767685197645 
C17   C     0.74747379026727 0.54365036996529 0.98023112326289 
C18   C     0.53119153068491 0.53625669998805 0.11612973784849 
C19   C     0.77275492076986 0.46001852618142 0.03765473628206 
C20   C     0.77653375818012 0.28359474647113 0.16119825146161 
C21   C     0.75480207317657 0.19597724762847 0.22165251242677 
C22   C     0.56600308063868 0.17091343088726 0.99342689508164 
C23   C     0.68431293546682 0.07776765781141 0.27054331297890 
C24   C     0.63692703587934 0.25961882103368 0.92139397395183 
C25   C     0.63804807986763 0.05202908059986 0.25907198097546 
C26   C     0.56584102053201 0.06793508471769 0.15860813404786 
C27   C     0.54221698060812 0.10595862884477 0.07353844957241 
C28   C     0.61441524959656 0.28031512723304 0.82964173149570 
C29   C     0.54368809098419 0.19328352256176 0.89872429100144 
C30   C     0.56714212389184 0.24870758931623 0.81826900588110 
H1    H     0.62317286416069 0.37903180924769 0.21846545743539 
H2    H     0.54052279813073 0.41434342347385 0.24835416393153 
H3    H     0.60647631782775 0.72351388969294 0.90006364776018 
H4    H     0.69171020648373 0.70449668579616 0.88240687915629 
H5    H     0.53453852543062 0.66474364814893 0.98914818941377 
H6    H     0.76452492719161 0.61355024150837 0.93168212220545 
H7    H     0.49421320537053 0.55145509453926 0.12829775306961 
H8    H     0.81059115985663 0.46315305286522 0.03806431245824 
H9    H     0.81407626700179 0.29594450446908 0.16330964451779 
H10   H     0.77419836843648 0.13826627652279 0.27601124008270 
H11   H     0.70479675186524 0.03047365287314 0.32889478174221 
H12   H     0.67363749163373 0.28191833777396 0.92744635551508 
H13   H     0.62037835684208 0.98625596153452 0.31014452919036 
H14   H     0.54904882360245 0.01013460090300 0.21695835334091 
H15   H     0.50563316081517 0.08230435052560 0.06344940509457 
H16   H     0.63317622873205 0.32130297804919 0.76547724650472 
H17   H     0.50742537463056 0.16501302950689 0.89056250947185 
H18   H     0.54979125605545 0.26689320114856 0.74592527245680 
