data_stdin
_audit_creation_method 'critic2'
_audit_creation_date 2023-8-11
_chemical_formula_sum 'C30 H18'
_cell_formula_units_Z 16
_cell_length_a        26.6444158691
_cell_length_b        33.1872537242
_cell_length_c         8.9357704955
_cell_angle_alpha        90.0038
_cell_angle_beta        90.0046
_cell_angle_gamma        89.9939
_cell_volume          7901.499562
_space_group_crystal_system triclinic
_space_group_IT_number 1
_space_group_name_H-M_alt 'P1'
_space_group_name_Hall 'P 1'
loop_
_symmetry_equiv_pos_site_id
_symmetry_equiv_pos_as_xyz
 1 'x,y,z'
 2 '-1/2+x,-1/2+y,z'
loop_
_atom_site_label
_atom_site_type_symbol
_atom_site_fract_x
_atom_site_fract_y
_atom_site_fract_z
C1    C     0.65484204838201 0.76968728405044 0.50877890665337 
C2    C     0.65487576560553 0.26966824390608 0.00845424964604 
C3    C     0.34512664191852 0.23031864342871 0.50844998415860 
C4    C     0.34509297347563 0.73033795335520 0.00812064504190 
C5    C     0.59514034011370 0.01966741045447 0.75837181247942 
C6    C     0.59515136058605 0.51967278592314 0.25839826423578 
C7    C     0.90489280348356 0.48033064666564 0.75827544441971 
C8    C     0.90488210974749 0.98032516266404 0.25830397734095 
C9    C     0.66969760636809 0.74195492323107 0.39159229759761 
C10   C     0.66974146587903 0.24192329758067 0.89132374154971 
C11   C     0.33026337910959 0.25805313292093 0.39128153997148 
C12   C     0.33021946846027 0.75808508749871 0.89100886797412 
C13   C     0.58027311175826 0.99192760606911 0.64122702388675 
C14   C     0.58027799666558 0.49192970286501 0.14127266434507 
C15   C     0.91976165464820 0.50807116864829 0.64115210640396 
C16   C     0.91975710630383 0.00806902743950 0.14119998434388 
C17   C     0.67459376335354 0.76820139179821 0.65580266033457 
C18   C     0.67459929143876 0.26818601264635 0.15550978539304 
C19   C     0.32538747093566 0.23180471066509 0.65547815994309 
C20   C     0.32538204319181 0.73182021224742 0.15518075721310 
C21   C     0.57541352396521 0.01819067487319 0.90541449587527 
C22   C     0.57543177416989 0.51820029037277 0.40545083962335 
C23   C     0.92461599592782 0.48180885322000 0.90532980994679 
C24   C     0.92459805458862 0.98179904038761 0.40536828603044 
C25   C     0.69391981154573 0.70375771262621 0.41836177028675 
C26   C     0.69394377990369 0.20372107208775 0.91817669667529 
C27   C     0.30604454349118 0.29625068238526 0.41808210618582 
C28   C     0.30602039504126 0.79628755361606 0.91789377991513 
C29   C     0.55606436746556 0.95373145831866 0.66805629867792 
C30   C     0.55606938054362 0.45373430810090 0.16813090928851 
C31   C     0.94396685071557 0.54626882904034 0.66801581597449 
C32   C     0.94396218000763 0.04626593784209 0.16809287768250 
C33   C     0.68863223322978 0.68006414363186 0.55330092176100 
C34   C     0.68862436432010 0.18004004982315 0.05313516214071 
C35   C     0.31133891544958 0.31994014254008 0.55304191758274 
C36   C     0.31134662020808 0.81996435226257 0.05287320209433 
C37   C     0.56137462973445 0.93004719185389 0.80301539125421 
C38   C     0.56138638093160 0.43005334329569 0.30309439312018 
C39   C     0.93865259378398 0.56995236142687 0.80298191191607 
C40   C     0.93864117100609 0.06994614517632 0.30306341772417 
C41   C     0.64494159297136 0.68029064930775 0.64916762061976 
C42   C     0.64491875104521 0.18029043373572 0.14894673675089 
C43   C     0.35503448163563 0.31971130585008 0.64891048412523 
C44   C     0.35505710727951 0.81971156218266 0.14868682088314 
C45   C     0.60507655997810 0.93028538470893 0.89886226881602 
C46   C     0.60509054880420 0.43029638100059 0.39893666943714 
C47   C     0.89495010869651 0.56971111208203 0.89880775874911 
C48   C     0.89493635855860 0.06970015559405 0.39888446740189 
C49   C     0.62217765205046 0.80252475527394 0.47276853598965 
C50   C     0.62223211746939 0.30251230467912 0.97235411448378 
C51   C     0.37778269159528 0.19747803909443 0.47240828250250 
C52   C     0.37772809996484 0.69749077693984 0.97198853877967 
C53   C     0.62779192002462 0.05250164249973 0.72229882920352 
C54   C     0.62780268803971 0.55250515515468 0.22229887110489 
C55   C     0.87224554394925 0.44749394341282 0.72216157238569 
C56   C     0.87223508807326 0.94749034653955 0.22216341278247 
C57   C     0.66148401243877 0.75362300836372 0.24049808094714 
C58   C     0.66155700680155 0.25357846776787 0.74020778346390 
C59   C     0.33846243170627 0.24638576437580 0.24017790223548 
C60   C     0.33838899403982 0.74643068885235 0.73988337625870 
C61   C     0.58846564930035 0.00358113132194 0.49011738504184 
C62   C     0.58846387702677 0.50357775934488 0.99015435064218 
C63   C     0.91157743922829 0.49641490540277 0.49003280197370 
C64   C     0.91157961353557 0.99641825811756 0.99007193700548 
C65   C     0.66037319152803 0.79596829418144 0.76314222802323 
C66   C     0.66037373416912 0.29596495734569 0.26280144117396 
C67   C     0.33961323762623 0.20403589544065 0.76279772051781 
C68   C     0.33961348978829 0.70403963564041 0.26245258686880 
C69   C     0.58964345682656 0.04596473663439 0.01271779933530 
C70   C     0.58967190436192 0.54597424874226 0.51274184952045 
C71   C     0.91038587699159 0.45403433320191 0.01261057614202 
C72   C     0.91035771887808 0.95402455600201 0.51263657587356 
C73   C     0.72502403383876 0.68777079090598 0.30288023732900 
C74   C     0.72505990140762 0.18771694545132 0.80276046374653 
C75   C     0.27493264796354 0.31224029954089 0.30261647195623 
C76   C     0.27489641850883 0.81229443882538 0.80249403638480 
C77   C     0.52495312480406 0.93773476729739 0.55260802763204 
C78   C     0.52494987455059 0.43773680358453 0.05270492404715 
C79   C     0.97508191038971 0.56226598675023 0.55259881323659 
C80   C     0.97508566900841 0.06226386306796 0.05269841572409 
C81   C     0.72902880330889 0.65375388393603 0.59116233282656 
C82   C     0.72900267743413 0.15372097988769 0.09108215634309 
C83   C     0.27094181052952 0.34624630408979 0.59093116376329 
C84   C     0.27096769858476 0.84627919234500 0.09084870083819 
C85   C     0.52099285200179 0.90373593044305 0.84091866510399 
C86   C     0.52100747794633 0.40374139189777 0.34101955606404 
C87   C     0.97903233628765 0.59626461000614 0.84092697980964 
C88   C     0.97901810372874 0.09625899842601 0.34103072498188 
C89   C     0.59507266031884 0.69206355672239 0.60055186013999 
C90   C     0.59506287272188 0.19207732204015 0.10025701172543 
C91   C     0.40490086632828 0.30793961229571 0.60028807588464 
C92   C     0.40491033087748 0.80792539972666 0.09999067781277 
C93   C     0.65493370208507 0.94206547528794 0.85021949686878 
C94   C     0.65494567304350 0.44207642872527 0.35027963860059 
C95   C     0.84509422777938 0.55793067129667 0.85012989904741 
C96   C     0.84508241962268 0.05791984362132 0.35019217609695 
C97   C     0.65038242621432 0.66586108958434 0.79814246305662 
C98   C     0.65032925198253 0.16587275206113 0.29794801012698 
C99   C     0.34960136048221 0.33413632368747 0.79789783890107 
C100  C     0.34965434050825 0.83412471047337 0.29770071718730 
C101  C     0.59966174695877 0.91585996881854 0.04784983150238 
C102  C     0.59967788662966 0.41587950860587 0.54793602786341 
C103  C     0.90036406879075 0.58413188010399 0.04781047430825 
C104  C     0.90034818910446 0.08411220089774 0.54789923455875 
C105  C     0.60893267371203 0.80954065182574 0.32045051034156 
C106  C     0.60902225316841 0.30952277200689 0.82000224008695 
C107  C     0.39100663775378 0.19045902924766 0.32007947562860 
C108  C     0.39091685000307 0.69047735813514 0.81962573607254 
C109  C     0.64100581042227 0.05951088595190 0.56995643868171 
C110  C     0.64100753892679 0.55951045135956 0.06994729430576 
C111  C     0.85904142552437 0.44048146867614 0.56980598608759 
C112  C     0.85903996377416 0.94048189699953 0.06979859111037 
C113  C     0.62985468376947 0.78722995958198 0.20808850682939 
C114  C     0.62995266568923 0.28719455574119 0.70770498304805 
C115  C     0.37007877540841 0.21277338634556 0.20773823736442 
C116  C     0.36998032895674 0.71280926988005 0.70734974254093 
C117  C     0.62007477136129 0.03718984693320 0.45764071836764 
C118  C     0.62007123933554 0.53718549310297 0.95765039443523 
C119  C     0.87997519460508 0.46280299801525 0.45751636500908 
C120  C     0.87997904141714 0.96280739026539 0.95752798389473 
C121  C     0.60617138537894 0.82930681432756 0.58670391211495 
C122  C     0.60621572304509 0.32930400406729 0.08624279145663 
C123  C     0.39379880697702 0.17069569605585 0.58632808993724 
C124  C     0.39375473574426 0.67069888446788 0.08586144790389 
C125  C     0.64381539713392 0.07928564978007 0.83620151640877 
C126  C     0.64383578262704 0.57928969689232 0.33618803693640 
C127  C     0.85621918766344 0.42071040669230 0.83604479936449 
C128  C     0.85619904014574 0.92070624865711 0.33603299852018 
C129  C     0.68555624252619 0.73215963422908 0.12259635667343 
C130  C     0.68563891861155 0.23209843244172 0.62236235080641 
C131  C     0.31438670022351 0.26785463197871 0.12229215077164 
C132  C     0.31430333946335 0.76791629403309 0.62205449524885 
C133  C     0.56438987702422 0.98210621449130 0.37224799016154 
C134  C     0.56437831868660 0.48210152059880 0.87230502392829 
C135  C     0.93565701398142 0.51789030144067 0.37219050192873 
C136  C     0.93566910826965 0.01789497973484 0.87224991216077 
C137  C     0.62461564656196 0.82601285305107 0.73066188945655 
C138  C     0.62463530915101 0.32601677735477 0.23023213999233 
C139  C     0.37536850004972 0.17399156340912 0.73029423760581 
C140  C     0.37534908180592 0.67398782661936 0.22985908242418 
C141  C     0.62539418105469 0.07600256163786 0.98018029122435 
C142  C     0.62542443232920 0.57600886426327 0.48017907169381 
C143  C     0.87463726863177 0.42399586967647 0.98003679514475 
C144  C     0.87460723314763 0.92398936775474 0.48003730777652 
C145  C     0.71971481270623 0.70259345667038 0.15440097075875 
C146  C     0.71978052282335 0.20252713373949 0.65425323176872 
C147  C     0.28023390031841 0.29742277292175 0.15412385665794 
C148  C     0.28016764404486 0.79748952026769 0.65397318070253 
C149  C     0.53024400081901 0.95254231980498 0.40410390065376 
C150  C     0.53023074654485 0.45254188310580 0.90419315523836 
C151  C     0.96979826968621 0.54745672628795 0.40408710428028 
C152  C     0.96981211944416 0.04745708824562 0.90417903251502 
C153  C     0.76063579439044 0.65712660934940 0.33722449253943 
C154  C     0.76065130668921 0.15706514490494 0.83718809032107 
C155  C     0.23931944261576 0.34288020990244 0.33699212454278 
C156  C     0.23930369156791 0.84294199247353 0.83695349726779 
C157  C     0.48935438303851 0.90709301206422 0.58700127146327 
C158  C     0.48935402114537 0.40709475345146 0.08711891886974 
C159  C     0.01067727834969 0.59290902593706 0.58703071690896 
C160  C     0.01067814157322 0.09290718632753 0.08715126155996 
C161  C     0.76534475989030 0.64329128177882 0.48084851162394 
C162  C     0.76532992150693 0.14323745690663 0.98083254135441 
C163  C     0.23461682614772 0.35670941106456 0.48063077449610 
C164  C     0.23463143411692 0.85676339184613 0.98061281347113 
C165  C     0.48466667802421 0.89326536118027 0.73064033052102 
C166  C     0.48467682078913 0.39326686444991 0.23076057408309 
C167  C     0.01535988375311 0.60673798432596 0.73067849171450 
C168  C     0.01535002483558 0.10673647671617 0.23080152866942 
C169  C     0.55682210056410 0.69857804203434 0.71036024304390 
C170  C     0.55680162627664 0.19861405612186 0.20999814815155 
C171  C     0.44315497057453 0.30141750542444 0.71009430100212 
C172  C     0.44317539296034 0.80138179764545 0.20972928683485 
C173  C     0.69318872072749 0.94859403069379 0.95999937415437 
C174  C     0.69320348064470 0.44860938113970 0.46004726414712 
C175  C     0.80683921397928 0.55139717368077 0.95988375033520 
C176  C     0.80682460382245 0.05138189635415 0.45993373745789 
C177  C     0.73218276176765 0.63773637696295 0.73860703134616 
C178  C     0.73212622224356 0.13771880306781 0.23856107871566 
C179  C     0.26779597326833 0.36225937370184 0.73838963735895 
C180  C     0.26785240095557 0.86227699278813 0.23834134846682 
C181  C     0.51786624052942 0.88772387699136 0.98837988964977 
C182  C     0.51788303215811 0.38773835659161 0.48849566150320 
C183  C     0.98215896139600 0.61227036598682 0.98840715972811 
C184  C     0.98214241955668 0.11225578367832 0.48852573828761 
C185  C     0.58069374521098 0.69459710515856 0.44810228674311 
C186  C     0.58070790665218 0.19460167425459 0.94777991301629 
C187  C     0.41927388273014 0.30541503390366 0.44783742065615 
C188  C     0.41925909190455 0.80540955225450 0.94751199628036 
C189  C     0.66929726332479 0.94459195863607 0.69775620053947 
C190  C     0.66930383579957 0.44460354346442 0.19781207337619 
C191  C     0.83073141322416 0.55540977057020 0.69765551887441 
C192  C     0.83072504455279 0.05539833223832 0.19771345886374 
C193  C     0.69541884653065 0.64580716910441 0.84117595405343 
C194  C     0.69534959627676 0.14580745593549 0.34106585180773 
C195  C     0.30456730859122 0.35418886351886 0.84094893749108 
C196  C     0.30463635367281 0.85418855843768 0.34083654646470 
C197  C     0.55464139459906 0.89579746525639 0.09091635558981 
C198  C     0.55465748993503 0.39582047749341 0.59102490760184 
C199  C     0.94538508772398 0.60419161409598 0.09092052370576 
C200  C     0.94536932796553 0.10416832608256 0.59103189509975 
C201  C     0.61057495736621 0.67095421345965 0.90379498737807 
C202  C     0.61051158603593 0.17099696384167 0.40354497123418 
C203  C     0.38941307340206 0.32903766666957 0.90355003869737 
C204  C     0.38947631348704 0.82899483590449 0.40329716157564 
C205  C     0.63947580927809 0.92097055354856 0.15347969211958 
C206  C     0.63949431903252 0.42099473205189 0.65355412882375 
C207  C     0.86054945878898 0.57901725977392 0.15341623108058 
C208  C     0.86053116717395 0.07899291862541 0.65349309447132 
C209  C     0.56628177623497 0.68861375713756 0.86337381364020 
C210  C     0.56623451173938 0.18867055334984 0.36304442725508 
C211  C     0.43370267067383 0.31137602125216 0.86311576037084 
C212  C     0.43374961845626 0.81131891732321 0.36278367806641 
C213  C     0.68375214445945 0.93864257594124 0.11302904140447 
C214  C     0.68377095142850 0.43866307542733 0.61308298275945 
C215  C     0.81627429375156 0.56134433448762 0.11292606331110 
C216  C     0.81625565530278 0.06132378692929 0.61298218636825 
C217  C     0.53322043565740 0.70712329793939 0.40625453243889 
C218  C     0.53324664690951 0.20713039762594 0.90583889410071 
C219  C     0.46674550000726 0.29289102969652 0.40598115159734 
C220  C     0.46671980926813 0.79288630557275 0.90556294632050 
C221  C     0.71675809098224 0.95712091364729 0.65586847148313 
C222  C     0.71675970665810 0.45714012379408 0.15590858392922 
C223  C     0.78326992631195 0.54288530420536 0.65573083832816 
C224  C     0.78326852077823 0.04286629212857 0.15577286472704 
C225  C     0.50893116636343 0.71250353577781 0.66497858070653 
C226  C     0.50891887511286 0.21254040501556 0.16452526239822 
C227  C     0.49104405714044 0.28749303143764 0.66470232637097 
C228  C     0.49105618437280 0.78745613108417 0.16424584275511 
C229  C     0.74107203290877 0.96251837695572 0.91458106199074 
C230  C     0.74108367612751 0.46253697885136 0.41461247135133 
C231  C     0.75895584065974 0.53747433832383 0.91442604089848 
C232  C     0.75894435261095 0.03745586561951 0.41445935073652 
C233  C     0.49736073704888 0.71750938388142 0.51547133184198 
C234  C     0.49736948442853 0.21752753416057 0.01500159926459 
C235  C     0.50261020127828 0.28249956378532 0.51519009910866 
C236  C     0.50260074775124 0.78248032928165 0.01471713386124 
C237  C     0.75262771597995 0.96751164050380 0.76507254019267 
C238  C     0.75263208185700 0.46753361434072 0.26510107241131 
C239  C     0.74739931906726 0.53249001633744 0.76490631275944 
C240  C     0.74739510652211 0.03246822195147 0.26493667469688 
H1    H     0.70266723774836 0.74561242954257 0.68313796598414 
H2    H     0.70265347817764 0.24558672624231 0.18291297282544 
H3    H     0.29731734878686 0.25439422469428 0.68283680173963 
H4    H     0.29733104409782 0.75441988203560 0.18260772437615 
H5    H     0.54735188576830 0.99560160971644 0.93279825933598 
H6    H     0.54736804469044 0.49561431250520 0.43284962355313 
H7    H     0.95267523201862 0.50439918328995 0.93274867791537 
H8    H     0.95265945501768 0.00438623641807 0.43280237946325 
H9    H     0.67787179485378 0.79518215030930 0.87319072217011 
H10   H     0.67785296956208 0.29518083911003 0.37287562450109 
H11   H     0.32212470461707 0.20482107230259 0.87285130102955 
H12   H     0.32214390194566 0.70482245230977 0.37253163568215 
H13   H     0.57216297817828 0.04518555755548 0.12278127385524 
H14   H     0.57219848379497 0.54519773750484 0.62281579348050 
H15   H     0.92786394093775 0.45481195199851 0.12268646534280 
H16   H     0.92782863378259 0.95479954314929 0.62272300667645 
H17   H     0.58385044023115 0.83442267272082 0.29433761606330 
H18   H     0.58396424745107 0.33441550854909 0.79382143762118 
H19   H     0.41607772361391 0.16557244047175 0.29393764072442 
H20   H     0.41596367342459 0.66558008883263 0.79341533863025 
H21   H     0.66606887252045 0.08439680421845 0.54379770934281 
H22   H     0.66606701010400 0.58439690763195 0.04376244557043 
H23   H     0.83398412142476 0.41559217736953 0.54361915983091 
H24   H     0.83398618654313 0.91559209908662 0.04358552497300 
H25   H     0.62225470121308 0.79462184495923 0.09144692993181 
H26   H     0.62238270959485 0.29457837034849 0.59103898718995 
H27   H     0.37766270413499 0.20537991215094 0.09108897104341 
H28   H     0.37753398703298 0.70542394316429 0.59067593686590 
H29   H     0.62764925053886 0.04457244297030 0.34098059632253 
H30   H     0.62763986046743 0.54456568626530 0.84098506323258 
H31   H     0.87241006152821 0.45541843377186 0.34084558936986 
H32   H     0.87241975235683 0.95542528085362 0.84085193133221 
H33   H     0.58005299685155 0.85342899322333 0.55816646176723 
H34   H     0.58010799211431 0.35342793301330 0.05764292437416 
H35   H     0.41991204480726 0.14657123602941 0.55777791424554 
H36   H     0.41985724062340 0.64657265438957 0.05724842617415 
H37   H     0.66993129681167 0.10339954005978 0.80761884585129 
H38   H     0.66995237095545 0.60340178328713 0.30759023050097 
H39   H     0.83010526765885 0.39659493952400 0.80744261219121 
H40   H     0.83008441321437 0.89659259501624 0.30741545738526 
H41   H     0.67845789366645 0.74112206975907 0.00740772393000 
H42   H     0.67856011658043 0.24105680921459 0.50715988334448 
H43   H     0.32147453601955 0.25889516038286 0.00709291854068 
H44   H     0.32137145508071 0.75896092212704 0.50684126355805 
H45   H     0.57147709096203 0.99106243191268 0.25705197343709 
H46   H     0.57145773527430 0.49105462801691 0.75710121423384 
H47   H     0.92857880499082 0.50893383582479 0.25698168541632 
H48   H     0.92859874278811 0.00894166471874 0.75703323116694 
H49   H     0.61289010023788 0.84725392569244 0.81673231629444 
H50   H     0.61289953183549 0.34727215582116 0.31624411669639 
H51   H     0.38709964371560 0.15274898729927 0.81634860345829 
H52   H     0.38709078251569 0.65273108506319 0.31585505384100 
H53   H     0.63713553882205 0.09725180565910 0.06620491557043 
H54   H     0.63717536220002 0.59725712644205 0.56619549907096 
H55   H     0.86289519814049 0.40274667140150 0.06604455153027 
H56   H     0.86285555744538 0.90274110523606 0.56603671765771 
H57   H     0.74240083981190 0.68923321300363 0.06606530699619 
H58   H     0.74247529422607 0.18915557312293 0.56596207500446 
H59   H     0.25754609685241 0.31078978020076 0.06580115412440 
H60   H     0.25747092003541 0.81086790009403 0.56569553146538 
H61   H     0.50755597330918 0.93917417978412 0.31578715162064 
H62   H     0.50753249725733 0.43917433989782 0.81589915416333 
H63   H     0.99248929385261 0.56082629431263 0.31579729859566 
H64   H     0.99251348831861 0.06082602058263 0.81591213360480 
H65   H     0.78562248811389 0.64659439960499 0.24899976125797 
H66   H     0.78564620326316 0.14652071835792 0.74900632460562 
H67   H     0.21432801873160 0.35341464070357 0.24877739334180 
H68   H     0.21430407169334 0.85348870246923 0.74878184441988 
H69   H     0.46436230185032 0.89655503248635 0.49879664628368 
H70   H     0.46435586550733 0.39655748973117 0.99892893004294 
H71   H     0.03567096875001 0.60344649270513 0.49884732573989 
H72   H     0.03567795683671 0.10344394061170 0.99898259016900 
H73   H     0.79548125876584 0.62286360567935 0.51233691553353 
H74   H     0.79545125888145 0.12280100606940 0.01237101005899 
H75   H     0.20447964876313 0.37713407335610 0.51213960942230 
H76   H     0.20450941670145 0.87719680278251 0.01217197349067 
H77   H     0.45454119834526 0.87283675159559 0.76215364261208 
H78   H     0.45455393072406 0.37283789691257 0.26229447643474 
H79   H     0.04548376993132 0.62716823883793 0.76221716161673 
H80   H     0.04547143108000 0.12716701835539 0.26236106316720 
H81   H     0.76465519750493 0.61954893544775 0.76834520272647 
H82   H     0.76458901533918 0.11952982443236 0.26837578730859 
H83   H     0.23532238578606 0.38044282631694 0.76813970413662 
H84   H     0.23538835392295 0.88046188168132 0.26816791953679 
H85   H     0.48540304199692 0.86953775511676 0.01815275342349 
H86   H     0.48542044315864 0.36955349368580 0.51828500674328 
H87   H     0.01462399366714 0.63045384389058 0.01820719667819 
H88   H     0.01460698857865 0.13043782758713 0.51834266451952 
H89   H     0.60724199383117 0.68573443889675 0.36206408556494 
H90   H     0.60727328772330 0.18573125487760 0.86180214591409 
H91   H     0.39272183522745 0.31428072353046 0.36180529334192 
H92   H     0.39269021094892 0.81428385450000 0.86154049854954 
H93   H     0.64274028887345 0.93572301540504 0.61174589709608 
H94   H     0.64274499251507 0.43573107709729 0.11181223914279 
H95   H     0.85728987529897 0.56428019832812 0.61166837385917 
H96   H     0.85728535392007 0.06427236393376 0.11173687452546 
H97   H     0.69906041011892 0.63537925052033 0.95606494234975 
H98   H     0.69897032265767 0.13539116037322 0.45597464894568 
H99   H     0.30093164127810 0.36461474158369 0.95584566566069 
H100  H     0.30102162058639 0.86460288506813 0.45575302787221 
H101  H     0.55102108228590 0.88536948693094 0.20580793814627 
H102  H     0.55103373499112 0.38540277908080 0.70592868635550 
H103  H     0.94900842400844 0.61461161276199 0.20582847481091 
H104  H     0.94899613650094 0.11457790101326 0.70595216198530 
H105  H     0.61684489385371 0.66100515567076 0.01851445217349 
H106  H     0.61675159911086 0.16106300085375 0.51829547517410 
H107  H     0.38314941598787 0.33898329650229 0.01827840346121 
H108  H     0.38324263648359 0.83892531248237 0.51805685352772 
H109  H     0.63323292040525 0.91102801045170 0.26821356064351 
H110  H     0.63325331489232 0.41105878650591 0.76829711618639 
H111  H     0.86678880068163 0.58895684535334 0.26816322125079 
H112  H     0.86676864722768 0.08892573829827 0.76824935526773 
H113  H     0.53660930214664 0.69357703327126 0.94534783733190 
H114  H     0.53655446209141 0.19366206890879 0.44497323388571 
H115  H     0.46337729922840 0.30640669213821 0.94509040049422 
H116  H     0.46343194674290 0.80632177659467 0.44471303586375 
H117  H     0.71342847102022 0.94362675691634 0.19498609033135 
H118  H     0.71344946802060 0.44364935165590 0.69503109035535 
H119  H     0.78659810354232 0.55635648356367 0.19486438408399 
H120  H     0.78657729811499 0.05633372417186 0.69491155215716 
H121  H     0.52311785129276 0.70820261623426 0.28825258231500 
H122  H     0.52315025228554 0.20820674168244 0.78783201744725 
H123  H     0.47684528742613 0.29182121190828 0.28798061995634 
H124  H     0.47681219261050 0.79181637189404 0.78755663535210 
H125  H     0.72686455596071 0.95819796860623 0.53787447971558 
H126  H     0.72685979424916 0.45822131408322 0.03791041066635 
H127  H     0.77316386880806 0.54181299018540 0.53773041518734 
H128  H     0.77316887306189 0.04178984185870 0.03776821079692 
H129  H     0.48070653568324 0.71814287851878 0.75049645386327 
H130  H     0.48069148340550 0.21819282178989 0.25002288643920 
H131  H     0.51927234678509 0.28184824954143 0.75021591290979 
H132  H     0.51928736188282 0.78179844021452 0.24973909487693 
H133  H     0.76929260134653 0.96816411448454 0.00011420055374 
H134  H     0.76930654453508 0.46818483752757 0.50013650727149 
H135  H     0.73073448636523 0.53182567069161 0.99993811137558 
H136  H     0.73072063911289 0.03180507917632 0.49996219642898 
H137  H     0.46022469642602 0.72772923152197 0.48157539398335 
H138  H     0.46023390144494 0.22775249908329 0.98108713258014 
H139  H     0.53974458654182 0.27228234742548 0.48127985298595 
H140  H     0.53973529268989 0.77225931937459 0.98078773797376 
H141  H     0.78976369868257 0.97773538306931 0.73120107690823 
H142  H     0.78976454721764 0.47776258317175 0.23121736476858 
H143  H     0.71026252572223 0.52227091903523 0.73099857399231 
H144  H     0.71026183657228 0.02224393912800 0.23101652308218 
