data_stdin
_audit_creation_method 'critic2'
_audit_creation_date 2023-8-11
_chemical_formula_sum 'C30 H18'
_cell_formula_units_Z 8
_cell_length_a        21.0472845180
_cell_length_b         9.1022184032
_cell_length_c        20.3921970974
_cell_angle_alpha        90.0012
_cell_angle_beta        94.4548
_cell_angle_gamma        89.9995
_cell_volume          3894.873190
_space_group_crystal_system monoclinic
_space_group_IT_number 15
_space_group_name_H-M_alt 'C2/c'
_space_group_name_Hall '-C 2yc'
loop_
_symmetry_equiv_pos_site_id
_symmetry_equiv_pos_as_xyz
 1 'x,y,z'
 2 '-x,-y,-z'
 3 '-1/2-x,y,-z'
 4 '-1/2+x,-y,z'
 5 '-1/2+x,-1/2+y,-1/2+z'
 6 '-1/2-x,-1/2-y,-1/2-z'
 7 '-x,-1/2+y,-1/2-z'
 8 'x,-1/2-y,-1/2+z'
loop_
_atom_site_label
_atom_site_type_symbol
_atom_site_fract_x
_atom_site_fract_y
_atom_site_fract_z
C1    C     0.35648767475211 0.70539352950028 0.97624936159861 
C2    C     0.31642293046714 0.60073849501066 0.93894654158714 
C3    C     0.34002734865835 0.85526166763457 0.98268992050363 
C4    C     0.26592167996812 0.64122471932321 0.89025265122557 
C5    C     0.26209655476267 0.77814812551004 0.85371949530202 
C6    C     0.31592513371391 0.86698733511967 0.83771070689077 
C7    C     0.41347180041564 0.65525932287287 0.01214861583849 
C8    C     0.32678646983716 0.44881021455968 0.95199499721686 
C9    C     0.38090755986607 0.95297303849597 0.01626887848875 
C10   C     0.21559043831086 0.53792177570942 0.87695787632730 
C11   C     0.19990615384875 0.82705166837901 0.83036912067047 
C12   C     0.38042165028365 0.81248552525583 0.83370429928431 
C13   C     0.30434842406878 0.01654412653328 0.82020688184061 
C14   C     0.42563115430422 0.50146022077568 0.01786625762964 
C15   C     0.38251643851187 0.40241026378569 0.99078107222724 
C16   C     0.45578189930023 0.75856328704201 0.04383624306233 
C17   C     0.28078581795787 0.34336944788274 0.92787775818126 
C18   C     0.44069236690076 0.90611887863656 0.04463722507334 
C19   C     0.22464869792096 0.38852266014963 0.89592374073163 
C20   C     0.15654856132207 0.58466056791822 0.84523309053935 
C21   C     0.14738233084361 0.72840611585316 0.82792425871413 
C22   C     0.43114992589227 0.91474045274963 0.82643370085730 
C23   C     0.19051900918861 0.97435848327870 0.80841003176401 
C24   C     0.39559840928589 0.66106678936137 0.83030097313357 
C25   C     0.24085944215841 0.06879633588181 0.80737772305778 
C26   C     0.35616903374763 0.11573358168348 0.81418890753736 
C27   C     0.41779201835007 0.06795805085899 0.82011757878797 
C28   C     0.45725213585566 0.61281313257130 0.82465491914205 
C29   C     0.49408417492922 0.86284755641015 0.82161220394324 
C30   C     0.50745764472184 0.71442036985668 0.82155505651749 
H1    H     0.29402041727131 0.89335874245385 0.96150679165219 
H2    H     0.36649025096425 0.06701834019682 0.02127242870686 
H3    H     0.46851740469218 0.46418412397096 0.04632993589819 
H4    H     0.39041006417080 0.28504764294909 0.99788087330299 
H5    H     0.50036471628245 0.71870123343622 0.06829861168501 
H6    H     0.28951681067237 0.22754922730862 0.93855811136169 
H7    H     0.47387998121817 0.98527404939434 0.06806940827311 
H8    H     0.18636358064171 0.31062554681082 0.88332482273488 
H9    H     0.11807538934474 0.50522065957395 0.83788956531164 
H10   H     0.10084104226318 0.76783169682932 0.80860357771176 
H11   H     0.14216792085737 0.01028479140461 0.79352585926583 
H12   H     0.35757965680455 0.58071284260027 0.83008035731134 
H13   H     0.23376593012649 0.18374729878731 0.79412026236778 
H14   H     0.34505149908761 0.23137397225964 0.80532041858372 
H15   H     0.45729940988853 0.14414039490529 0.81643716268742 
H16   H     0.46683966613259 0.49542940304305 0.82162703123241 
H17   H     0.53173634031426 0.94334861679614 0.81659824726790 
H18   H     0.55594546693240 0.67634921800574 0.81711546147037 
