data_stdin
_audit_creation_method 'critic2'
_audit_creation_date 2023-8-11
_chemical_formula_sum 'C30 H18'
_cell_formula_units_Z 4
_cell_length_a         8.6547740824
_cell_length_b        22.0895931500
_cell_length_c        11.3306336339
_cell_angle_alpha        89.9989
_cell_angle_beta        64.3139
_cell_angle_gamma        89.9970
_cell_volume          1952.136956
_space_group_crystal_system monoclinic
_space_group_IT_number 14
_space_group_name_H-M_alt 'P2_1/c'
_space_group_name_Hall '-P 2ybc'
loop_
_symmetry_equiv_pos_site_id
_symmetry_equiv_pos_as_xyz
 1 'x,y,z'
 2 '-x,-y,-z'
 3 '-x,-1/2+y,-1/2-z'
 4 'x,-1/2-y,-1/2+z'
loop_
_atom_site_label
_atom_site_type_symbol
_atom_site_fract_x
_atom_site_fract_y
_atom_site_fract_z
C1    C     0.64953035959191 0.62439287875031 0.41073993399124 
C2    C     0.71887816099131 0.56562128135966 0.41909662131105 
C3    C     0.56398541335250 0.63584719637381 0.33109580915429 
C4    C     0.74782129162282 0.51684196827796 0.32673120735203 
C5    C     0.77415381958570 0.52388230939674 0.19197939748757 
C6    C     0.84581732558883 0.57677772363741 0.11141127101969 
C7    C     0.65659047815907 0.67273032225131 0.49242543161524 
C8    C     0.75614456221693 0.55487860633714 0.52781010865636 
C9    C     0.50134715784083 0.69268106536648 0.32424642099795 
C10   C     0.75053727342638 0.45663456181055 0.37153930290241 
C11   C     0.72623479699933 0.47412876927213 0.13447162290110 
C12   C     0.95353302988469 0.62105520877917 0.13438859915073 
C13   C     0.81190440707361 0.58556284610094 0.00042058950272 
C14   C     0.72263388668135 0.66183913424392 0.58612751220656 
C15   C     0.76357230267282 0.60431122680449 0.60634459046306 
C16   C     0.59202992213238 0.73054163524194 0.48326123953288 
C17   C     0.78787514543417 0.49493426829448 0.55799510167082 
C18   C     0.51820226709763 0.74099178904987 0.39889503477282 
C19   C     0.77390878484605 0.44700156158545 0.48694630197000 
C20   C     0.72860667559533 0.40643224064626 0.30154202473954 
C21   C     0.70189804941538 0.41565969947944 0.19254611826577 
C22   C     0.98656159489734 0.67789083796391 0.06714923949661 
C23   C     0.70382257711767 0.48314101281289 0.01852939964625 
C24   C     0.03762597703983 0.60977094273716 0.21500351699759 
C25   C     0.73500496135112 0.53842525874036 0.95840603549062 
C26   C     0.85373848305060 0.64179413883829 0.93157259314770 
C27   C     0.93019817138050 0.68758195026807 0.96765400385712 
C28   C     0.13419375813540 0.65377341281402 0.23875051850333 
C29   C     0.08254411699005 0.72284654623595 0.09525934767660 
C30   C     0.15326959857717 0.71154981436158 0.18138544556563 
H1    H     0.54422673285067 0.59894750472169 0.27594148163797 
H2    H     0.43723252406362 0.69984328000933 0.26132859834178 
H3    H     0.73243603216911 0.69960342784127 0.64444134853159 
H4    H     0.80622060158127 0.59482571126099 0.68185855332184 
H5    H     0.60131382126290 0.76675254017303 0.54495225432540 
H6    H     0.81646314408874 0.48802969903357 0.64163930442067 
H7    H     0.46872593072872 0.78566958940379 0.39325306050933 
H8    H     0.78454428260385 0.40059980479442 0.51486088827728 
H9    H     0.72478346308688 0.36114007089944 0.34067386556730 
H10   H     0.67133454066037 0.37815547386044 0.14395879197069 
H11   H     0.65831540667413 0.44541444529873 0.98028946837372 
H12   H     0.02813354294712 0.56515527463395 0.25750027136351 
H13   H     0.70752088453329 0.54633883397914 0.87453028347964 
H14   H     0.81978962191112 0.64816501013887 0.85037135472423 
H15   H     0.95502832361005 0.73105340184264 0.91742740793421 
H16   H     0.19672263477342 0.64328264961362 0.30147982954360 
H17   H     0.10313198118648 0.76622279054520 0.04477399477548 
H18   H     0.22796611899884 0.74642837228533 0.20105117928212 
