data_stdin
_audit_creation_method 'critic2'
_audit_creation_date 2023-8-11
_chemical_formula_sum 'C30 H18'
_cell_formula_units_Z 8
_cell_length_a        16.6140075588
_cell_length_b         9.6396659616
_cell_length_c        25.2499373788
_cell_angle_alpha        89.9992
_cell_angle_beta        91.8601
_cell_angle_gamma        89.9997
_cell_volume          4041.734626
_space_group_crystal_system monoclinic
_space_group_IT_number 15
_space_group_name_H-M_alt 'C2/c'
_space_group_name_Hall '-C 2yc'
loop_
_symmetry_equiv_pos_site_id
_symmetry_equiv_pos_as_xyz
 1 'x,y,z'
 2 '-1/2-x,-1/2-y,-z'
 3 '-x,y,-1/2-z'
 4 '-1/2+x,-1/2-y,-1/2+z'
 5 '-1/2+x,-1/2+y,z'
 6 '-x,-y,-z'
 7 '-1/2-x,-1/2+y,-1/2-z'
 8 'x,-y,-1/2+z'
loop_
_atom_site_label
_atom_site_type_symbol
_atom_site_fract_x
_atom_site_fract_y
_atom_site_fract_z
C1    C     0.20774970747924 0.28303338788996 0.81890230425991 
C2    C     0.21888123655275 0.14416251937247 0.84000826147466 
C3    C     0.27255303870058 0.37235623882018 0.80723824456494 
C4    C     0.29332497145339 0.09342177795558 0.86418347511416 
C5    C     0.35544016796760 0.17892000294936 0.88948796879273 
C6    C     0.34251175124362 0.31278627014619 0.91377160163020 
C7    C     0.12805945328548 0.33025809295407 0.80519924827138 
C8    C     0.15335450171488 0.04975194633669 0.83392656199426 
C9    C     0.25960047067759 0.50411692837714 0.78714695592028 
C10   C     0.30714962779121 0.94732003150642 0.86271035246176 
C11   C     0.43556936040372 0.12495288933458 0.89138209807284 
C12   C     0.26604066540704 0.35975672997974 0.93345601353674 
C13   C     0.41023300821006 0.40176270581898 0.92195388559878 
C14   C     0.06181669037831 0.23654696270867 0.80794528211055 
C15   C     0.07482641363537 0.09959030860224 0.81914660003913 
C16   C     0.11621643858404 0.46722760634307 0.78615877166228 
C17   C     0.16625978017726 0.90483702673199 0.84110402046082 
C18   C     0.18069227154697 0.55369741325914 0.77760226157203 
C19   C     0.24209601441103 0.85472139379244 0.85146635690421 
C20   C     0.38628179659549 0.89389732266532 0.87167120193514 
C21   C     0.44962703720966 0.98169854180950 0.88144928971652 
C22   C     0.25692628942094 0.50227706745292 0.94796293992068 
C23   C     0.50194535641362 0.21355527887077 0.90419034147925 
C24   C     0.20163461025863 0.26881606605380 0.94421087366571 
C25   C     0.48974073800364 0.35029188566539 0.91593914865473 
C26   C     0.39917667377045 0.54298686331329 0.93725460986368 
C27   C     0.32440457108691 0.59363889149068 0.94702980173884 
C28   C     0.13039888556609 0.31673280125779 0.96429792882281 
C29   C     0.18261399887928 0.54961073218539 0.96704474103050 
C30   C     0.11993541597792 0.45881362561174 0.97493866304086 
H1    H     0.33396681077751 0.33581993059345 0.81335078770521 
H2    H     0.31074763103103 0.56926396827424 0.77777198551644 
H3    H     0.00143721604219 0.27449687650081 0.79816512643241 
H4    H     0.02518926089489 0.02556915442840 0.81732729280700 
H5    H     0.05485250613143 0.50206226865356 0.77729838999349 
H6    H     0.11543609281773 0.83458836612071 0.83513601927369 
H7    H     0.17132733553686 0.65808055023468 0.76220385618891 
H8    H     0.25367495912669 0.74353993547359 0.85238943424113 
H9    H     0.39541233824098 0.78240161466721 0.86831849559549 
H10   H     0.51122349324251 0.94314907323385 0.88430201425524 
H11   H     0.56239710779414 0.17012722535656 0.90341286122342 
H12   H     0.20948340095652 0.15805685274790 0.93883925063133 
H13   H     0.54045346980821 0.42019046830097 0.92327611955515 
H14   H     0.45209957828516 0.60972445443380 0.94047745883722 
H15   H     0.31581606806817 0.70267589611072 0.95662670239032 
H16   H     0.08309666343379 0.24329745719748 0.97354508056557 
H17   H     0.17656050200582 0.65923017619808 0.97664988362457 
H18   H     0.06391696878194 0.49624511034835 0.99089382388367 
