data_stdin
_audit_creation_method 'critic2'
_audit_creation_date 2023-8-11
_chemical_formula_sum 'C30 H18'
_cell_formula_units_Z 2
_cell_length_a        13.0740904563
_cell_length_b         8.0962264102
_cell_length_c         9.5909874400
_cell_angle_alpha        99.7859
_cell_angle_beta        83.4499
_cell_angle_gamma        82.2706
_cell_volume           981.557145
_space_group_crystal_system triclinic
_space_group_IT_number 2
_space_group_name_H-M_alt 'P-1'
_space_group_name_Hall '-P 1'
loop_
_symmetry_equiv_pos_site_id
_symmetry_equiv_pos_as_xyz
 1 'x,y,z'
 2 '-x,-y,-z'
loop_
_atom_site_label
_atom_site_type_symbol
_atom_site_fract_x
_atom_site_fract_y
_atom_site_fract_z
C1    C     0.70890931213244 0.40979211915573 0.75920655973694 
C2    C     0.61219522879251 0.52884176581991 0.79429628006375 
C3    C     0.78779622957178 0.40704261324081 0.84893610640251 
C4    C     0.59429659241648 0.67925940213967 0.90496593389323 
C5    C     0.67423460646610 0.77320617933014 0.95427773403953 
C6    C     0.77220580961849 0.77858626435974 0.86969783398070 
C7    C     0.72277341919924 0.27763159844001 0.63557114595064 
C8    C     0.52716917978398 0.48864474858505 0.72201883105254 
C9    C     0.87752082823668 0.28815958242119 0.81467861759494 
C10   C     0.48969071049303 0.73925012705674 0.97184401877595 
C11   C     0.65411844485241 0.86858817586088 0.09680583161730 
C12   C     0.79006299970714 0.74642861702244 0.71473075249219 
C13   C     0.85632133202809 0.82355471521427 0.94240414867866 
C14   C     0.63986799244834 0.26120157635386 0.55212673267980 
C15   C     0.54455499653339 0.35869689242172 0.59719716787150 
C16   C     0.81567736544471 0.15799891096462 0.60215230391814 
C17   C     0.42409819756006 0.57436272687099 0.77599553010112 
C18   C     0.89259828376891 0.16340142503032 0.68937367931648 
C19   C     0.40532230568895 0.68619645641928 0.90346350285253 
C20   C     0.46991328482259 0.85227999516212 0.10620527138784 
C21   C     0.55083510386593 0.90376666060526 0.17169590339435 
C22   C     0.89477229260076 0.71456074026590 0.64279105228180 
C23   C     0.73766937871338 0.92923226143682 0.16228857779129 
C24   C     0.70855671502460 0.75865959468771 0.62968652011759 
C25   C     0.83704525252397 0.89701212935399 0.09060877395933 
C26   C     0.95978062796628 0.79476908882154 0.86684162767950 
C27   C     0.97934347503154 0.73221965259800 0.72328349306187 
C28   C     0.72909360686535 0.72829428507430 0.48208656349180 
C29   C     0.91363730597134 0.67625593494827 0.49163822882738 
C30   C     0.83223346075303 0.68082501791105 0.41179330464961 
H1    H     0.77675669432537 0.49772631727552 0.94872978013449 
H2    H     0.93637581244876 0.29135952844139 0.88632253301943 
H3    H     0.65227254861136 0.16369384830218 0.45594863503311 
H4    H     0.47971921136563 0.34005537290585 0.53765518929340 
H5    H     0.82399020045742 0.05698269517036 0.50873604088666 
H6    H     0.36041353842282 0.54175667316450 0.71803505549860 
H7    H     0.96292993960839 0.06923115526047 0.66339169416008 
H8    H     0.32617901631176 0.74093686280796 0.95292651941564 
H9    H     0.38964519437384 0.89042953614169 0.15800793254691 
H10   H     0.53696504539886 0.97941453642628 0.27940921140259 
H11   H     0.72161587265857 0.99713251445092 0.27246305876343 
H12   H     0.62856140911316 0.79647996445665 0.68179391098339 
H13   H     0.90189258001588 0.93384435474625 0.14423034775287 
H14   H     0.02335573706166 0.82216677118742 0.92695180425186 
H15   H     0.05862137147786 0.70428290545813 0.66655942475762 
H16   H     0.66539919811548 0.74326010965793 0.41911437163008 
H17   H     0.99396129039302 0.64755319614475 0.43929701155745 
H18   H     0.84764907967433 0.65385564495099 0.29552024983885 
