data_stdin
_audit_creation_method 'critic2'
_audit_creation_date 2023-8-11
_chemical_formula_sum 'C30 H18'
_cell_formula_units_Z 4
_cell_length_a         9.2515951420
_cell_length_b        12.6800216300
_cell_length_c        18.6022390199
_cell_angle_alpha        90.0000
_cell_angle_beta        65.6864
_cell_angle_gamma        90.0000
_cell_volume          1988.684797
_space_group_crystal_system monoclinic
_space_group_IT_number 14
_space_group_name_H-M_alt 'P2_1/c'
_space_group_name_Hall '-P 2ybc'
loop_
_symmetry_equiv_pos_site_id
_symmetry_equiv_pos_as_xyz
 1 'x,y,z'
 2 '-x,-y,-z'
 3 '-x,-1/2+y,-1/2-z'
 4 'x,-1/2-y,-1/2+z'
loop_
_atom_site_label
_atom_site_type_symbol
_atom_site_fract_x
_atom_site_fract_y
_atom_site_fract_z
C1    C     0.66540432677032 0.34595149943753 0.71848236711050 
C2    C     0.65977359088560 0.30991293175832 0.79364865994693 
C3    C     0.52824831860379 0.36166302465781 0.70391251562074 
C4    C     0.52198242316034 0.26325772950918 0.85535285798913 
C5    C     0.39648741599861 0.20847331637395 0.84318939082389 
C6    C     0.41566664302459 0.15060199341014 0.77282829610476 
C7    C     0.81438054161313 0.37730137503089 0.65787392505445 
C8    C     0.79561854275931 0.32749961330133 0.80946976217689 
C9    C     0.53815522521112 0.39827487179899 0.63200877264931 
C10   C     0.50652672017586 0.27262524630009 0.93470975498179 
C11   C     0.24242054259391 0.21112284547902 0.90637008716816 
C12   C     0.56390889683736 0.10459500671325 0.71824897457948 
C13   C     0.27808740809951 0.13237127925866 0.75851626213750 
C14   C     0.95331706281833 0.37781474154466 0.67323408166128 
C15   C     0.94292734764890 0.35714259996433 0.74722063133746 
C16   C     0.82147190655295 0.41369299407066 0.58459337650837 
C17   C     0.78419002594288 0.31911944072006 0.88797624944753 
C18   C     0.68620628876998 0.42278752095985 0.57091930065644 
C19   C     0.64148499452665 0.29912488824701 0.94948648867822 
C20   C     0.35531376208511 0.25852983683948 0.99853396750615 
C21   C     0.22451043146581 0.23879298028239 0.98378058695580 
C22   C     0.57351469564777 0.06066961032807 0.64547404380232 
C23   C     0.10742315580696 0.18455495918006 0.89186686251843 
C24   C     0.69765104500398 0.09127354091750 0.73606439311658 
C25   C     0.12461449248552 0.15360859669991 0.81837133491106 
C26   C     0.29252771555985 0.08923298673362 0.68507381060509 
C27   C     0.43576533806758 0.05764846956780 0.62933663823493 
C28   C     0.83621189389163 0.04568231787539 0.68300819649757 
C29   C     0.71711816508259 0.01483532884670 0.59178251804930 
C30   C     0.84790525561198 0.00860904365182 0.60942655579735 
H1    H     0.41199561666182 0.34849917215457 0.75103450957891 
H2    H     0.42982051050885 0.41065966037931 0.62341957199818 
H3    H     0.06616464467485 0.40014019230137 0.62591569779445 
H4    H     0.04701765910147 0.36287978414980 0.76038362208614 
H5    H     0.93642398844357 0.43718040564592 0.53973881325242 
H6    H     0.88975766089715 0.33463351889557 0.89831780530612 
H7    H     0.69302960236741 0.45177619017116 0.51448461259028 
H8    H     0.62940265439873 0.30086263490036 0.01023109923525 
H9    H     0.34509201634799 0.27027431385868 0.05844663098460 
H10   H     0.10585005737152 0.23963897635787 0.03126134107070 
H11   H     0.99037811659614 0.19122237658106 0.94012237481970 
H12   H     0.69028879944727 0.11476136823058 0.79352551198903 
H13   H     0.02121401805866 0.13877331284657 0.80593562728151 
H14   H     0.18540535281086 0.08063147262641 0.67484723635384 
H15   H     0.44510313404783 0.02397765160146 0.57372616527025 
H16   H     0.93580773571694 0.03641995086967 0.69929498458663 
H17   H     0.72055869393414 0.98138157260832 0.53713926479248 
H18   H     0.95713463797175 0.97222247992164 0.56805930038304 
