data_stdin
_audit_creation_method 'critic2'
_audit_creation_date 2023-8-11
_chemical_formula_sum 'C30 H18'
_cell_formula_units_Z 2
_cell_length_a         9.0646437366
_cell_length_b        11.4968002568
_cell_length_c        11.2170931475
_cell_angle_alpha        68.3603
_cell_angle_beta        70.3257
_cell_angle_gamma        66.6404
_cell_volume           972.368289
_space_group_crystal_system triclinic
_space_group_IT_number 2
_space_group_name_H-M_alt 'P-1'
_space_group_name_Hall '-P 1'
loop_
_symmetry_equiv_pos_site_id
_symmetry_equiv_pos_as_xyz
 1 'x,y,z'
 2 '-x,-y,-z'
loop_
_atom_site_label
_atom_site_type_symbol
_atom_site_fract_x
_atom_site_fract_y
_atom_site_fract_z
C1    C     0.54994112676913 0.29768891307263 0.43837343833526 
C2    C     0.46612846421638 0.42499713407596 0.36056981058225 
C3    C     0.70921952675827 0.26543434218039 0.45849099788179 
C4    C     0.54586981645853 0.52193995034905 0.27183868941237 
C5    C     0.72013930370779 0.49358958110190 0.21093389864405 
C6    C     0.82604403274714 0.37130336080311 0.17994354168226 
C7    C     0.46574207487095 0.20117626455764 0.50550702502792 
C8    C     0.29329507100005 0.45849737134713 0.37599814713634 
C9    C     0.78942679462245 0.14020533655558 0.52588216739723 
C10   C     0.44638301340030 0.65648997801964 0.24267354848093 
C11   C     0.79212112248933 0.59464911628726 0.17778411409493 
C12   C     0.76890961946160 0.28351694423610 0.15415059506955 
C13   C     0.99837482560879 0.33874461181942 0.16592120141573 
C14   C     0.29667173584412 0.23482952901097 0.50449353762747 
C15   C     0.21243467652443 0.36033043110725 0.44545153734396 
C16   C     0.54967527857735 0.07391058852159 0.57521158237787 
C17   C     0.19951492491939 0.59070504416459 0.32352363241718 
C18   C     0.71117161442211 0.04207607865682 0.58141803088808 
C19   C     0.27237095436861 0.68793692281261 0.26683023334341 
C20   C     0.52176541680917 0.75780028117680 0.19158498428160 
C21   C     0.68885442237412 0.72684151339059 0.17102365528789 
C22   C     0.87793242646074 0.15442638244130 0.14786955809546 
C23   C     0.96652678046394 0.56255352289892 0.15096287309130 
C24   C     0.61444908479582 0.32324093294699 0.12216013710307 
C25   C     0.06563610608361 0.43578130433023 0.15585296518115 
C26   C     0.10429964415874 0.21006748743290 0.15736073978704 
C27   C     0.04494994525604 0.11867839749384 0.15543789007039 
C28   C     0.56550737900853 0.23790350254516 0.09494381270786 
C29   C     0.82212796184079 0.06689118423995 0.12537784092715 
C30   C     0.66764353758986 0.10726415582719 0.10036571564843 
H1    H     0.76862570001089 0.34109744448145 0.42259887901449 
H2    H     0.91281777491388 0.11808825539731 0.53818590924684 
H3    H     0.23579827043962 0.15917769100822 0.55464752723116 
H4    H     0.08189577822729 0.38795443971839 0.44817735040765 
H5    H     0.48413374951573 0.00136606409116 0.62438500846094 
H6    H     0.06758695710666 0.61333249378003 0.33618572636472 
H7    H     0.77600434786660 0.94321075428018 0.63264608795393 
H8    H     0.19913745210610 0.79077121446657 0.23723805113957 
H9    H     0.44252122659503 0.85968053052024 0.17766648845026 
H10   H     0.74654144212934 0.80263868349027 0.14412012158448 
H11   H     0.01955372455582 0.64033492549217 0.12814554802492 
H12   H     0.53455585213437 0.42405265508699 0.11524389392426 
H13   H     0.19805580298252 0.40960246206359 0.14392886575229 
H14   H     0.23483602652706 0.18642511767421 0.15174311525554 
H15   H     0.12645474784509 0.01988944443622 0.15145536860587 
H16   H     0.44908885137908 0.27298926895224 0.06555894923973 
H17   H     0.90605760795545 0.96811137185346 0.12375155586254 
H18   H     0.62673934723883 0.03999927096094 0.08108602626956 
