data_stdin
_audit_creation_method 'critic2'
_audit_creation_date 2023-8-11
_chemical_formula_sum 'C30 H18'
_cell_formula_units_Z 4
_cell_length_a        15.1101594442
_cell_length_b        13.7443155100
_cell_length_c         9.4346345037
_cell_angle_alpha        90.0000
_cell_angle_beta        88.5128
_cell_angle_gamma        90.0000
_cell_volume          1958.713566
_space_group_crystal_system monoclinic
_space_group_IT_number 14
_space_group_name_H-M_alt 'P2_1/c'
_space_group_name_Hall '-P 2ybc'
loop_
_symmetry_equiv_pos_site_id
_symmetry_equiv_pos_as_xyz
 1 'x,y,z'
 2 '-x,-y,-z'
 3 '-x,-1/2+y,-1/2-z'
 4 'x,-1/2-y,-1/2+z'
loop_
_atom_site_label
_atom_site_type_symbol
_atom_site_fract_x
_atom_site_fract_y
_atom_site_fract_z
C1    C     0.22849256508906 0.60795059166282 0.24066916332881 
C2    C     0.18734940228280 0.57359955067374 0.11257422283876 
C3    C     0.32137272229213 0.61198475418702 0.25644402949413 
C4    C     0.23257832809800 0.51943821860120 0.00058754130590 
C5    C     0.30932849540127 0.45749519857362 0.01765115294462 
C6    C     0.33277412490626 0.40877462128473 0.14741497441754 
C7    C     0.17434945619964 0.64854500862708 0.35262605362705 
C8    C     0.09769873354359 0.60068453270111 0.09190068201463 
C9    C     0.35854166896763 0.64862582523664 0.37785859708852 
C10   C     0.19896786470227 0.52819641056831 0.86095036799576 
C11   C     0.36562591695633 0.44161845750263 0.89582311041649 
C12   C     0.27005949609772 0.38147272859275 0.25949556268112 
C13   C     0.42246848649033 0.37948830396074 0.16240568134789 
C14   C     0.08130530936611 0.65820908868023 0.33498716234674 
C15   C     0.04503604073423 0.63877766049338 0.20703684821320 
C16   C     0.21379287215538 0.68394064561828 0.47693170595214 
C17   C     0.06044330735819 0.59269507413289 0.95526467842819 
C18   C     0.30451507953218 0.68362018818639 0.49053191083470 
C19   C     0.11189113790718 0.56453441932700 0.84128639428570 
C20   C     0.25235457528724 0.50089611808415 0.74114372137691 
C21   C     0.33618934446167 0.46629825056716 0.75851010784394 
C22   C     0.30232562940241 0.34686595235115 0.39162804907083 
C23   C     0.45137672452291 0.40099737887160 0.91139556074437 
C24   C     0.17738849832584 0.37762216240072 0.24047933073316 
C25   C     0.48156462837678 0.37803774507417 0.04236948431237 
C26   C     0.45269505085330 0.34774513083391 0.29687825567016 
C27   C     0.39521150815728 0.33602802995847 0.40958305646187 
C28   C     0.11962939443341 0.34765564154176 0.34786393293190 
C29   C     0.24193683853224 0.31765356176515 0.50064729253471 
C30   C     0.15187313551941 0.31903046040642 0.48030704370110 
H1    H     0.36432732540413 0.58707580303740 0.17004751230163 
H2    H     0.43031663067535 0.65085323140036 0.38605333382631 
H3    H     0.04119167839078 0.68647999550566 0.42320121300787 
H4    H     0.97500068114256 0.65198679805967 0.18969778414328 
H5    H     0.17125748900817 0.71375681509873 0.56116599844073 
H6    H     0.99174225791109 0.61424548592572 0.94289723516107 
H7    H     0.33342062775900 0.71174925567847 0.58677809596841 
H8    H     0.08657865627968 0.56575055373918 0.73422224464981 
H9    H     0.22659345943763 0.51156131762031 0.63568060023129 
H10   H     0.38007006115821 0.45323120692914 0.66706446577462 
H11   H     0.49311118300886 0.39231755611396 0.81661316473934 
H12   H     0.15147856936947 0.39626612548267 0.13786181612422 
H13   H     0.54947083023193 0.35391354071627 0.05656128127577 
H14   H     0.52296209615240 0.33182023127968 0.30638653608110 
H15   H     0.41820108281741 0.31085214624948 0.51161713886223 
H16   H     0.04886858025489 0.34489334776907 0.32873837495436 
H17   H     0.26784507945688 0.29218355971863 0.60058647025289 
H18   H     0.10671787379827 0.29601975205812 0.56560529982912 
