data_stdin
_audit_creation_method 'critic2'
_audit_creation_date 2023-8-11
_chemical_formula_sum 'C30 H18'
_cell_formula_units_Z 2
_cell_length_a         8.4869012434
_cell_length_b        11.3567030550
_cell_length_c        11.1880244617
_cell_angle_alpha        95.1782
_cell_angle_beta        74.6588
_cell_angle_gamma        71.0753
_cell_volume           965.207626
_space_group_crystal_system triclinic
_space_group_IT_number 2
_space_group_name_H-M_alt 'P-1'
_space_group_name_Hall '-P 1'
loop_
_symmetry_equiv_pos_site_id
_symmetry_equiv_pos_as_xyz
 1 'x,y,z'
 2 '-x,-y,-z'
loop_
_atom_site_label
_atom_site_type_symbol
_atom_site_fract_x
_atom_site_fract_y
_atom_site_fract_z
C1    C     0.72671488858101 0.37594945089352 0.89559616578688 
C2    C     0.77135888955225 0.25191522836386 0.92963175220649 
C3    C     0.63099077146706 0.41049833440427 0.81003620996993 
C4    C     0.76653931933225 0.14047103799863 0.85901944378613 
C5    C     0.78513880372128 0.11895933599457 0.72519898667144 
C6    C     0.87025232396479 0.17785724614536 0.63177516188557 
C7    C     0.76824431662472 0.47241041727824 0.95745045759825 
C8    C     0.81689947106970 0.24025126881783 0.04270655402644 
C9    C     0.59310725521318 0.52886417810275 0.77791660654714 
C10   C     0.73987565089967 0.04446550510603 0.92733474695769 
C11   C     0.71265703839421 0.03252302921525 0.68168452220000 
C12   C     0.00779307227421 0.22444055010286 0.64072560726549 
C13   C     0.82144035424573 0.18533444945863 0.51964171288476 
C14   C     0.84051977297770 0.44868066476705 0.05816610025821 
C15   C     0.85828396123900 0.33813414230991 0.10163653879234 
C16   C     0.73010056958664 0.59257918172703 0.92194398436005 
C17   C     0.81507609194761 0.13330922393865 0.09967505780339 
C18   C     0.64647523804047 0.62015164910621 0.83201134308358 
C19   C     0.76317549587651 0.04397783094283 0.04871157317047 
C20   C     0.69110521747587 0.94828237083760 0.87418393855495 
C21   C     0.66627458254612 0.94822815633300 0.75840074564729 
C22   C     0.06081937247274 0.29928608265355 0.55311591110705 
C23   C     0.68437541115794 0.03073637950208 0.56191497358281 
C24   C     0.10594799849705 0.18928098495757 0.72490022352660 
C25   C     0.72435914090320 0.11275983040767 0.48794201315392 
C26   C     0.87352390485492 0.26331500849134 0.43625580719524 
C27   C     0.98394445648267 0.32269682808820 0.45452266426359 
C28   C     0.24089845114676 0.23117904452672 0.72803261949019 
C29   C     0.19693990937386 0.34354579289788 0.55993186775144 
C30   C     0.28500733367499 0.31135279779297 0.64668724815573 
H1    H     0.58276653493319 0.34336221780889 0.77101112384156 
H2    H     0.51748342101487 0.55254334668018 0.71280338271411 
H3    H     0.87374728053771 0.52208289415690 0.10357555465318 
H4    H     0.90532476579308 0.32277341727557 0.18261554435743 
H5    H     0.76588254730486 0.66354898090960 0.96912781260184 
H6    H     0.85023785094827 0.12631996733955 0.18628795608942 
H7    H     0.61539024866830 0.71337706607493 0.80674704327033 
H8    H     0.74693238180159 0.96733397039668 0.09646363116091 
H9    H     0.66632252147290 0.87895384547063 0.93031894031578 
H10   H     0.61650402837042 0.88117437617288 0.72021298830493 
H11   H     0.62639280672284 0.96513844651516 0.53240390012810 
H12   H     0.07708220227988 0.12517398215020 0.78619541495001 
H13   H     0.69174506488657 0.11833175982684 0.40023716006107 
H14   H     0.82265380950946 0.27367379691149 0.35657002331084 
H15   H     0.02255923925182 0.38238779353342 0.39046347723347 
H16   H     0.31638156435605 0.20001046811779 0.79191091401087 
H17   H     0.23323604357313 0.40159047647154 0.49299514976251 
H18   H     0.39102368119907 0.34441600830793 0.64973306959184 
