data_stdin
_audit_creation_method 'critic2'
_audit_creation_date 2023-8-11
_chemical_formula_sum 'C30 H18'
_cell_formula_units_Z 8
_cell_length_a        11.3568593431
_cell_length_b        15.2777173700
_cell_length_c        22.3563412303
_cell_angle_alpha        90.0000
_cell_angle_beta        90.0011
_cell_angle_gamma        90.0000
_cell_volume          3878.979177
_space_group_crystal_system orthorhombic
_space_group_IT_number 61
_space_group_name_H-M_alt 'Pbca'
_space_group_name_Hall '-P 2ac 2ab'
loop_
_symmetry_equiv_pos_site_id
_symmetry_equiv_pos_as_xyz
 1 'x,y,z'
 2 '-x,-y,-z'
 3 '-1/2-x,-y,-1/2+z'
 4 '-1/2+x,y,-1/2-z'
 5 '-1/2+x,-1/2-y,-z'
 6 '-1/2-x,-1/2+y,z'
 7 '-x,-1/2+y,-1/2-z'
 8 'x,-1/2-y,-1/2+z'
loop_
_atom_site_label
_atom_site_type_symbol
_atom_site_fract_x
_atom_site_fract_y
_atom_site_fract_z
C1    C     0.04006303034153 0.94533224754701 0.62481782890334 
C2    C     0.00132562677483 0.89882217513023 0.57181915160547 
C3    C     0.14809281720567 0.99133411794791 0.62777504206205 
C4    C     0.07719783829460 0.87505187186059 0.52246707605936 
C5    C     0.20374775186917 0.86399694479260 0.52608490873645 
C6    C     0.26726154542705 0.83926285958401 0.57943706034248 
C7    C     0.96319447371734 0.95146832749608 0.67537036898517 
C8    C     0.87970101406289 0.87791998666073 0.56726106189888 
C9    C     0.18324323867731 0.03454491600399 0.67902422639717 
C10   C     0.02379261694086 0.86126583757883 0.46554729375843 
C11   C     0.27041183240258 0.87770565904605 0.47276867097742 
C12   C     0.21569714569818 0.79106108168393 0.62883417625224 
C13   C     0.38893376360962 0.86061616844030 0.58299073269500 
C14   C     0.84612500700264 0.91798331502256 0.67142853475044 
C15   C     0.80521109266244 0.88566865441135 0.61840990038928 
C16   C     0.00211210732464 0.99430208959219 0.72802207919208 
C17   C     0.83153248812632 0.84978919633871 0.51168786786888 
C18   C     0.11123699007700 0.03408896480658 0.73032757684838 
C19   C     0.90011362700738 0.84786089669505 0.46148620850102 
C20   C     0.09410098119049 0.86162781003023 0.41279868537455 
C21   C     0.21255941743284 0.87709850052444 0.41625037661484 
C22   C     0.27802815152154 0.78585795604449 0.68436439443448 
C23   C     0.39416877299861 0.89174528571253 0.47678666291543 
C24   C     0.10907538004986 0.74334860756527 0.62403611364633 
C25   C     0.45006252920621 0.88967074120289 0.53100974941319 
C26   C     0.44983873558096 0.85139155458795 0.63847978984423 
C27   C     0.39516160811100 0.81900877592278 0.68817643268657 
C28   C     0.06046119139620 0.70135777847621 0.67295498694464 
C29   C     0.22479702468219 0.74459387355994 0.73427859197184 
C30   C     0.11648059333568 0.70427073692067 0.72920818141197 
H1    H     0.20314230973272 0.99527086590372 0.58825364783211 
H2    H     0.26576898772615 0.07071627097898 0.67920012275078 
H3    H     0.78893766127489 0.92208086214128 0.71047575833771 
H4    H     0.71446418746034 0.86354124605387 0.61402727333111 
H5    H     0.94294301366653 0.99632256002205 0.76635090052501 
H6    H     0.73829126415441 0.83330261297295 0.50941279870272 
H7    H     0.14049562858070 0.06721116650109 0.77084444127019 
H8    H     0.86229152716589 0.83368833324598 0.41789306590789 
H9    H     0.04987060757954 0.85425417774605 0.36989325853628 
H10   H     0.26498460336777 0.88618534762923 0.37590807742805 
H11   H     0.44294620193552 0.90699815270336 0.43610794411899 
H12   H     0.06478077691433 0.73904944830866 0.58109297111053 
H13   H     0.54311038811768 0.90623355979670 0.53457781543276 
H14   H     0.54146051096730 0.87208664097214 0.64084856459619 
H15   H     0.44190611375030 0.81481203383182 0.73057562722642 
H16   H     0.97813109161627 0.66555854118766 0.66777356679729 
H17   H     0.27226920267748 0.74430438074643 0.77665669831872 
H18   H     0.07625603166587 0.67220133625172 0.76755753037256 
