data_stdin
_audit_creation_method 'critic2'
_audit_creation_date 2023-8-11
_chemical_formula_sum 'C30 H18'
_cell_formula_units_Z 2
_cell_length_a        10.8877320167
_cell_length_b        11.2847194697
_cell_length_c         8.4596576675
_cell_angle_alpha       104.3535
_cell_angle_beta       104.6339
_cell_angle_gamma        89.6384
_cell_volume           972.524607
_space_group_crystal_system triclinic
_space_group_IT_number 2
_space_group_name_H-M_alt 'P-1'
_space_group_name_Hall '-P 1'
loop_
_symmetry_equiv_pos_site_id
_symmetry_equiv_pos_as_xyz
 1 'x,y,z'
 2 '-x,-y,-z'
loop_
_atom_site_label
_atom_site_type_symbol
_atom_site_fract_x
_atom_site_fract_y
_atom_site_fract_z
C1    C     0.73121606635067 0.91083481142040 0.67563726409255 
C2    C     0.59673559902135 0.88252761789989 0.65045004722504 
C3    C     0.80153403666694 0.85246058348785 0.56121252324401 
C4    C     0.52528522103837 0.77602313253701 0.53005097016312 
C5    C     0.57733423930777 0.66011054937191 0.46832018203983 
C6    C     0.68791469437511 0.61135453840678 0.56074614058792 
C7    C     0.79512755632677 0.01007293569240 0.81353347314629 
C8    C     0.52910336094905 0.96906890184566 0.74416077869663 
C9    C     0.92845930107642 0.88524413634484 0.58585883393075 
C10   C     0.39210192264045 0.78544791334584 0.46573234582915 
C11   C     0.51160807282627 0.58715310896106 0.30500847460635 
C12   C     0.73841056581981 0.64761254842331 0.74321544833514 
C13   C     0.74787330709982 0.51568154719197 0.46899242950189 
C14   C     0.72580004661832 0.08135321481906 0.92197746679457 
C15   C     0.59667027635917 0.06446045426040 0.88405146833424 
C16   C     0.92524475854606 0.04158985007318 0.83645136916624 
C17   C     0.39367271120835 0.96213408799634 0.69713893458631 
C18   C     0.99193085315369 0.97966573136327 0.72575652846866 
C19   C     0.32785323504253 0.87900797313886 0.55383184501058 
C20   C     0.32400361695063 0.70174260599935 0.31346828608237 
C21   C     0.38512757622703 0.61178663420359 0.22800671762249 
C22   C     0.86132966374044 0.61104002653174 0.81698921766775 
C23   C     0.57133223572494 0.48754907740695 0.22050603642610 
C24   C     0.66697459002042 0.70693775128491 0.85540335360262 
C25   C     0.68917808338634 0.45712919325753 0.29680883307238 
C26   C     0.86757259452004 0.47712081081803 0.54833247698663 
C27   C     0.92698182988796 0.52942966736127 0.71363942173417 
C28   C     0.71543648170752 0.73360235208894 0.02880762306914 
C29   C     0.91212307423400 0.64632941623509 0.99447820316386 
C30   C     0.84051270591684 0.70637792471037 0.09975221390990 
H1    H     0.75387564189947 0.78222720324203 0.44938775020269 
H2    H     0.97945072059973 0.83949594965285 0.49454412984821 
H3    H     0.77715098499608 0.15331370386033 0.03014252124646 
H4    H     0.54248436352127 0.12388737218352 0.96025789204360 
H5    H     0.97209224312671 0.11685894482604 0.94272379896866 
H6    H     0.34420805385788 0.02872720040834 0.77170169594791 
H7    H     0.09191205273340 0.00519663674951 0.74504486442838 
H8    H     0.22542752793718 0.88189464859438 0.50578450741218 
H9    H     0.22367916709937 0.71436693086734 0.26395673355296 
H10   H     0.33618426607584 0.55246394783224 0.10561446661892 
H11   H     0.52124977628768 0.43671006625056 0.09353754705021 
H12   H     0.56953503041627 0.72658515962060 0.80408130516595 
H13   H     0.73725682860201 0.38383983081610 0.23015531066066 
H14   H     0.91231329042877 0.40662837560556 0.47214930915839 
H15   H     0.02110462804062 0.50354697636976 0.77117991498525 
H16   H     0.65546506964754 0.77343240252553 0.11123242652777 
H17   H     0.00751172543046 0.62046396972123 0.04677228499026 
H18   H     0.87888991811331 0.72957924100546 0.23621995044776 
