data_stdin
_audit_creation_method 'critic2'
_audit_creation_date 2023-8-11
_chemical_formula_sum 'C30 H18'
_cell_formula_units_Z 8
_cell_length_a        15.6059192705
_cell_length_b        31.1963296740
_cell_length_c         8.0423878036
_cell_angle_alpha        90.0005
_cell_angle_beta        89.9994
_cell_angle_gamma        89.9999
_cell_volume          3915.415611
_space_group_crystal_system orthorhombic
_space_group_IT_number 56
_space_group_name_H-M_alt 'Pccn'
_space_group_name_Hall '-P 2ab 2ac'
loop_
_symmetry_equiv_pos_site_id
_symmetry_equiv_pos_as_xyz
 1 'x,y,z'
 2 '-x,-y,-z'
 3 '-1/2-x,-1/2-y,z'
 4 '-1/2+x,-1/2+y,-z'
 5 '-1/2+x,-y,-1/2-z'
 6 '-1/2-x,y,-1/2+z'
 7 '-x,-1/2+y,-1/2-z'
 8 'x,-1/2-y,-1/2+z'
loop_
_atom_site_label
_atom_site_type_symbol
_atom_site_fract_x
_atom_site_fract_y
_atom_site_fract_z
C1    C     0.57832884915283 0.09914421726652 0.62734999454850 
C2    C     0.60425972834491 0.11370345058348 0.79112020574688 
C3    C     0.55201303031732 0.12744504276493 0.49955571610207 
C4    C     0.58713944097186 0.15599954074701 0.85770197643200 
C5    C     0.51612790502173 0.18374510984040 0.81121755426500 
C6    C     0.43518129457060 0.16939266478587 0.74304195297275 
C7    C     0.58666682469950 0.05474986948541 0.58538787179063 
C8    C     0.65486533668256 0.08520118107372 0.88852689539884 
C9    C     0.53064708387980 0.11283041374183 0.34283495104706 
C10   C     0.64575685004016 0.17190923960882 0.97962594953868 
C11   C     0.52706985582944 0.22881307972890 0.83539528503905 
C12   C     0.40089014844998 0.12639913697487 0.76148388318846 
C13   C     0.38396645635349 0.19957180519079 0.65486472342580 
C14   C     0.62537879737072 0.02574494660551 0.70034489699200 
C15   C     0.66192966645853 0.04107322072299 0.84286108420705 
C16   C     0.56224165895986 0.04034601531615 0.42535660551575 
C17   C     0.70081426045158 0.10054400717433 0.02929308635342 
C18   C     0.53419047278914 0.06876329881750 0.30573978127279 
C19   C     0.70146328516994 0.14332360416302 0.06532724452889 
C20   C     0.64899288342496 0.21656112380688 0.01494965632989 
C21   C     0.59603105588636 0.24445405904606 0.93391558183159 
C22   C     0.33185810494204 0.11285449888368 0.65668507309897 
C23   C     0.46822538056825 0.25832083508573 0.76361054808466 
C24   C     0.42815216263611 0.09770147412103 0.88723049513914 
C25   C     0.40197543004659 0.24420719576500 0.66702824461270 
C26   C     0.31443723899265 0.18511201304650 0.55354760785499 
C27   C     0.29207727250131 0.14284590199358 0.54705806221087 
C28   C     0.39535871304287 0.05664176345757 0.89930093770616 
C29   C     0.30020624183651 0.07044480519795 0.66949345322481 
C30   C     0.33218489355930 0.04239883985055 0.78698052443429 
H1    H     0.55026817524381 0.16157868397178 0.52471957288757 
H2    H     0.51244282771862 0.13565321636673 0.24668950818950 
H3    H     0.62970726112257 0.99192893205816 0.66712222288455 
H4    H     0.69846944248925 0.02007025334621 0.92467474534626 
H5    H     0.56808502241659 0.00636125505819 0.39701948552115 
H6    H     0.73871399083079 0.07803272333799 0.10172253470422 
H7    H     0.51774054692321 0.05726955151223 0.18206453484041 
H8    H     0.74228994417852 0.15598864784106 0.16362516482981 
H9    H     0.69586995628291 0.22787551305816 0.10502937239189 
H10   H     0.60263947166910 0.27890538761653 0.95100509562761 
H11   H     0.47877927540432 0.29244661331086 0.78272232631996 
H12   H     0.47498499818815 0.10844473147149 0.97768607062722 
H13   H     0.36063857685378 0.26685813388961 0.60231185311592 
H14   H     0.28086385497139 0.20866423209670 0.47751830799394 
H15   H     0.24113068970347 0.13186397495206 0.46506632309115 
H16   H     0.41770015793524 0.03530155963057 0.99734849536522 
H17   H     0.24851870679964 0.06087864959924 0.58643531766286 
H18   H     0.30725319239330 0.00987064753287 0.79556818102616 
