data_stdin
_audit_creation_method 'critic2'
_audit_creation_date 2023-8-11
_chemical_formula_sum 'C30 H18'
_cell_formula_units_Z 4
_cell_length_a         9.2425797500
_cell_length_b        16.2002411800
_cell_length_c        12.9436257000
_cell_angle_alpha        90.0000
_cell_angle_beta        90.0000
_cell_angle_gamma        89.9999
_cell_volume          1938.075236
_space_group_crystal_system orthorhombic
_space_group_IT_number 19
_space_group_name_H-M_alt 'P2_12_12_1'
_space_group_name_Hall 'P 2ac 2ab'
loop_
_symmetry_equiv_pos_site_id
_symmetry_equiv_pos_as_xyz
 1 'x,y,z'
 2 '-x,-1/2+y,-1/2-z'
 3 '-1/2+x,-1/2-y,-z'
 4 '-1/2-x,-y,-1/2+z'
loop_
_atom_site_label
_atom_site_type_symbol
_atom_site_fract_x
_atom_site_fract_y
_atom_site_fract_z
C1    C     0.38415237603743 0.53708053878615 0.85647717777033 
C2    C     0.44703456226083 0.45957897610864 0.82221600467942 
C3    C     0.23351058772171 0.54908306024849 0.86981580623646 
C4    C     0.36556488630551 0.39178250216726 0.77835922269002 
C5    C     0.22933030784891 0.39910529335648 0.72389576306990 
C6    C     0.18427337374694 0.47021203557838 0.66457026732945 
C7    C     0.47776586149800 0.60279442380733 0.88847677901802 
C8    C     0.59733095725240 0.44715511025414 0.83972790757103 
C9    C     0.17801342501536 0.62317416303410 0.90510756888768 
C10   C     0.42289521545079 0.31049690947755 0.79029740214891 
C11   C     0.13389259237598 0.32989120374327 0.72690830093113 
C12   C     0.28278281176780 0.52764116174373 0.61510997132925 
C13   C     0.03369167642026 0.48087584704664 0.64642369074293 
C14   C     0.63054457909238 0.59041765121210 0.89034516541128 
C15   C     0.68772518680800 0.51463151430183 0.86931404531723 
C16   C     0.41834329813749 0.67853771928928 0.92264612760510 
C17   C     0.65830564848559 0.36668302669040 0.83174339769921 
C18   C     0.27055870306265 0.68928634235212 0.92993843229882 
C19   C     0.57193871243526 0.29960447242196 0.81438015328570 
C20   C     0.33059664428213 0.24066986734140 0.77954529272266 
C21   C     0.18691466942158 0.25100568312657 0.75721483774913 
C22   C     0.22584224608204 0.60039566711574 0.56704643284700 
C23   C     0.98604465989481 0.34000273334994 0.69887649009656 
C24   C     0.43192701863336 0.51096407839699 0.60070843387985 
C25   C     0.93547597491062 0.41528180033563 0.66740760121218 
C26   C     0.98112021998115 0.55605361135547 0.60300380205485 
C27   C     0.07373476423526 0.61531476345334 0.56786272065341 
C28   C     0.52083105709556 0.56429778624371 0.54660271311981 
C29   C     0.31918874710692 0.65422080689402 0.51244498745046 
C30   C     0.46481298584525 0.63707510933945 0.50262841828622 
H1    H     0.15979695473572 0.49822447614738 0.85585132278576 
H2    H     0.06157649450749 0.62949339633763 0.91577229227335 
H3    H     0.69993789121005 0.64194406872382 0.91189811871228 
H4    H     0.80384218019647 0.50386558362585 0.87497979282991 
H5    H     0.49201121370424 0.72802619224274 0.94455617308026 
H6    H     0.77380834328019 0.35950095105940 0.84529260621861 
H7    H     0.22607192337519 0.74766359673515 0.95694203728011 
H8    H     0.61533188470682 0.23722645109887 0.81672649800451 
H9    H     0.37574285101693 0.17962592747069 0.79356984115486 
H10   H     0.11247830540389 0.19878993267438 0.75773101031758 
H11   H     0.91373499273567 0.28714431744124 0.70563080879095 
H12   H     0.47700727331619 0.45359842816363 0.62950030967386 
H13   H     0.82079922862374 0.42470051011110 0.65195385817016 
H14   H     0.86454166823149 0.56423540873455 0.59621194903948 
H15   H     0.03238632304830 0.67165753281550 0.53269187156572 
H16   H     0.63439720662142 0.54858281413748 0.53604125661500 
H17   H     0.27310154371219 0.70866094105993 0.47564950201433 
H18   H     0.53498325053163 0.67860827654573 0.45946715747179 
