data_stdin
_audit_creation_method 'critic2'
_audit_creation_date 2023-8-11
_chemical_formula_sum 'C30 H18'
_cell_formula_units_Z 4
_cell_length_a         8.2531297497
_cell_length_b        11.3655632502
_cell_length_c        22.4588363202
_cell_angle_alpha        89.9996
_cell_angle_beta        69.2192
_cell_angle_gamma        89.9998
_cell_volume          1969.622019
_space_group_crystal_system monoclinic
_space_group_IT_number 14
_space_group_name_H-M_alt 'P2_1/c'
_space_group_name_Hall '-P 2ybc'
loop_
_symmetry_equiv_pos_site_id
_symmetry_equiv_pos_as_xyz
 1 'x,y,z'
 2 '-x,-y,-z'
 3 '-x,-1/2+y,-1/2-z'
 4 'x,-1/2-y,-1/2+z'
loop_
_atom_site_label
_atom_site_type_symbol
_atom_site_fract_x
_atom_site_fract_y
_atom_site_fract_z
C1    C     0.49793773792013 0.26052614057742 0.13912589824161 
C2    C     0.50058187797332 0.13314347124271 0.14366090026310 
C3    C     0.54749577201537 0.32159236646706 0.08041100663964 
C4    C     0.59743186382219 0.05595181467463 0.09225497113151 
C5    C     0.74844839653306 0.09026653426634 0.03842349642181 
C6    C     0.86897084341738 0.18200166035841 0.03913743759839 
C7    C     0.42800072571072 0.32856611184872 0.19614516684492 
C8    C     0.39248844751379 0.08135459172892 0.20181153502033 
C9    C     0.54144423316795 0.44306572261007 0.07799424636323 
C10   C     0.53711559202694 0.93791376657395 0.09342079946409 
C11   C     0.78009426841640 0.02824547268477 0.98021834382134 
C12   C     0.90376241322028 0.21804229169650 0.09541005846378 
C13   C     0.96872166006149 0.23486165210399 0.98008289550180 
C14   C     0.34851922029746 0.27069658491091 0.25589542733109 
C15   C     0.32215449867777 0.15200503516245 0.25779810852974 
C16   C     0.42790190440373 0.45285171467184 0.19250539674896 
C17   C     0.35498645054437 0.95885677708894 0.20462503910343 
C18   C     0.48584029864113 0.50997789505668 0.13444104792434 
C19   C     0.41600013580211 0.89133627522302 0.15077619743012 
C20   C     0.59487066312288 0.86896987710087 0.03682845183927 
C21   C     0.70095203385021 0.91680019098332 0.98067384369040 
C22   C     0.00876319528440 0.31981666390559 0.09229602655792 
C23   C     0.88993105464030 0.07891621786592 0.92188183107957 
C24   C     0.85496500753890 0.15024771776827 0.15201101242090 
C25   C     0.97079759483488 0.18402092696391 0.92181362934994 
C26   C     0.06972901363836 0.33729168486472 0.97899141530965 
C27   C     0.08298256772541 0.38142531256690 0.03358545067642 
C28   C     0.90010623218957 0.18319785077067 0.20334250582585 
C29   C     0.04905856252607 0.35376549226110 0.14612124634333 
C30   C     0.99528919682065 0.28704598750698 0.20104374536080 
H1    H     0.58834378965925 0.27187276551090 0.03629593424953 
H2    H     0.57939605007255 0.48715726926837 0.03205571659637 
H3    H     0.30198271042049 0.32384719636444 0.29903229670888 
H4    H     0.24974150259461 0.10745019875465 0.30229674274317 
H5    H     0.37946136107733 0.50300734530648 0.23659251526773 
H6    H     0.27179009467210 0.92107529192800 0.24960187319678 
H7    H     0.48555175705919 0.60572563895590 0.13237918162276 
H8    H     0.37510640076041 0.80003969983057 0.15145584102044 
H9    H     0.54553711698654 0.77969764017146 0.03847397247188 
H10   H     0.73246709532847 0.86880954875353 0.93604887605730 
H11   H     0.90294253376096 0.03378631749541 0.87768406447571 
H12   H     0.78627798176660 0.06804637051768 0.15405637927133 
H13   H     0.04600043257958 0.22717655568823 0.87724277367174 
H14   H     0.13673970916853 0.38009593417528 0.93340851825470 
H15   H     0.15684037392978 0.46120078293312 0.03257466015864 
H16   H     0.86478900733586 0.12716726994452 0.24539867329352 
H17   H     0.13015023484276 0.43110277083977 0.14245082649172 
H18   H     0.03078098153382 0.31232066003020 0.24150229510982 
