data_stdin
_audit_creation_method 'critic2'
_audit_creation_date 2023-8-11
_chemical_formula_sum 'C30 H18'
_cell_formula_units_Z 4
_cell_length_a         9.4611820140
_cell_length_b        12.7605472119
_cell_length_c        17.6725839903
_cell_angle_alpha        90.0012
_cell_angle_beta        70.3716
_cell_angle_gamma        90.0004
_cell_volume          2009.627036
_space_group_crystal_system monoclinic
_space_group_IT_number 14
_space_group_name_H-M_alt 'P2_1/c'
_space_group_name_Hall '-P 2ybc'
loop_
_symmetry_equiv_pos_site_id
_symmetry_equiv_pos_as_xyz
 1 'x,y,z'
 2 '-x,-y,-z'
 3 '-x,-1/2+y,-1/2-z'
 4 'x,-1/2-y,-1/2+z'
loop_
_atom_site_label
_atom_site_type_symbol
_atom_site_fract_x
_atom_site_fract_y
_atom_site_fract_z
C1    C     0.39101694536681 0.18329781426598 0.89259459422480 
C2    C     0.42225199533346 0.29241520832027 0.87013029505470 
C3    C     0.25015621161849 0.13548726396732 0.90375389187621 
C4    C     0.30822991772737 0.37034370477559 0.87617741392193 
C5    C     0.15617853775395 0.36603986895679 0.93205642735270 
C6    C     0.11174916337826 0.31429762625665 0.00920860934544 
C7    C     0.51058689348768 0.11720503781110 0.89664624824100 
C8    C     0.57511755268491 0.32319619665201 0.83565732166099 
C9    C     0.22535450913363 0.03067525977824 0.92383057329850 
C10   C     0.34754764477063 0.45770239091471 0.82272423862103 
C11   C     0.04261320879160 0.41805713772483 0.90974834178949 
C12   C     0.21015171747178 0.29868566867358 0.05586784335994 
C13   C     0.95935573482658 0.28342544231883 0.04423070163188 
C14   C     0.65923995515590 0.15824698434617 0.87526454319601 
C15   C     0.69114623162912 0.25583099549361 0.84219143875283 
C16   C     0.48274466330146 0.01006646493162 0.91670382037091 
C17   C     0.61167388538655 0.42028440570502 0.79377264128416 
C18   C     0.34175467717445 0.96768211296436 0.93183500921669 
C19   C     0.50166952051331 0.48126348213082 0.78221837513565 
C20   C     0.23223258077268 0.51998462104703 0.81038376502110 
C21   C     0.08426884217708 0.49476231891093 0.84760263855327 
C22   C     0.16248205720637 0.23198909280042 0.12501033900782 
C23   C     0.88899387308349 0.39303739073812 0.95054646589986 
C24   C     0.34586590567037 0.35476607580891 0.04166650562460 
C25   C     0.85039548922030 0.32106703659448 0.01148704354958 
C26   C     0.91475526926173 0.21793382211121 0.11382707406320 
C27   C     0.01509733211284 0.18831641874489 0.15015362088607 
C28   C     0.43362243137974 0.34104788979365 0.08960464488354 
C29   C     0.25711974446436 0.21611996268502 0.17138558768850 
C30   C     0.39167931501688 0.26899155845603 0.15378197715818 
H1    H     0.16052020321212 0.18133447372567 0.89471634344847 
H2    H     0.11600979695273 0.99616824359628 0.93167499033833 
H3    H     0.74776243949170 0.10801495524778 0.88159861253208 
H4    H     0.80644912144896 0.28392819442958 0.82024893910790 
H5    H     0.57532402694594 0.96085489789012 0.91872995570509 
H6    H     0.72911436311423 0.44292618716477 0.76737650102022 
H7    H     0.32230902005226 0.88534932719484 0.94798984243796 
H8    H     0.53058006980265 0.55027588985686 0.74394463695677 
H9    H     0.26405970934165 0.58527193706284 0.76844412073622 
H10   H     0.99592713242687 0.53756946723586 0.83407388126895 
H11   H     0.80364619015834 0.43025497369484 0.93086439219945 
H12   H     0.37979591162573 0.41210432132611 0.99351941377845 
H13   H     0.73425066809067 0.29647351755571 0.03899699347537 
H14   H     0.79831122007235 0.19223311491472 0.13780498740006 
H15   H     0.98221105258810 0.13594306558722 0.20189164711940 
H16   H     0.53390718956169 0.38861509043924 0.07874742265153 
H17   H     0.21996056975673 0.16330725061257 0.22275543721254 
H18   H     0.46191716046451 0.25715925920411 0.19089010431831 
