data_stdin
_audit_creation_method 'critic2'
_audit_creation_date 2023-8-11
_chemical_formula_sum 'C30 H18'
_cell_formula_units_Z 2
_cell_length_a        11.4793707293
_cell_length_b        10.3334036115
_cell_length_c         8.8996107379
_cell_angle_alpha        88.0911
_cell_angle_beta        65.5546
_cell_angle_gamma        91.1748
_cell_volume           959.829443
_space_group_crystal_system triclinic
_space_group_IT_number 2
_space_group_name_H-M_alt 'P-1'
_space_group_name_Hall '-P 1'
loop_
_symmetry_equiv_pos_site_id
_symmetry_equiv_pos_as_xyz
 1 'x,y,z'
 2 '-x,-y,-z'
loop_
_atom_site_label
_atom_site_type_symbol
_atom_site_fract_x
_atom_site_fract_y
_atom_site_fract_z
C1    C     0.80908121145882 0.33108832263967 0.37953924931214 
C2    C     0.68676738774465 0.32696359111220 0.52234106351936 
C3    C     0.82077616915743 0.34038225999061 0.21449075417922 
C4    C     0.56443897189437 0.29981922728424 0.51684301047705 
C5    C     0.54466378286393 0.22767829213171 0.39139602231305 
C6    C     0.62570294572371 0.12793919250759 0.29520818790988 
C7    C     0.92502492740551 0.33672337101922 0.40335321662802 
C8    C     0.68732682719890 0.35920734141164 0.67630155781655 
C9    C     0.93882323993783 0.34367635327245 0.08117460577580 
C10   C     0.45412529205300 0.35141182296367 0.64321046602748 
C11   C     0.43563546577950 0.25881268676224 0.36043035518770 
C12   C     0.71318171732635 0.05514669470440 0.34220843961286 
C13   C     0.61952742366581 0.09881276232471 0.14329517388790 
C14   C     0.91945746502567 0.34983490127367 0.56526111186053 
C15   C     0.80471287599677 0.36586724679338 0.69543242300483 
C16   C     0.04470598386062 0.33612545012516 0.26483416990102 
C17   C     0.57142509177131 0.38950673095568 0.81084278985817 
C18   C     0.05218128068891 0.33781569178554 0.10597979600339 
C19   C     0.46013945730232 0.39462277884789 0.79008885151148 
C20   C     0.33883004205452 0.36228763879783 0.62129375361768 
C21   C     0.33431878982030 0.32751182514254 0.47717250704498 
C22   C     0.80935573834823 0.98214757134353 0.22106603068242 
C23   C     0.42772087767631 0.22039118216426 0.21287981139250 
C24   C     0.70687724076724 0.04855646035520 0.50452408828712 
C25   C     0.52147311310005 0.14958334167445 0.10230211480653 
C26   C     0.71232980569060 0.01925270555443 0.02940350012795 
C27   C     0.80784632273123 0.96773655047379 0.06313394830184 
C28   C     0.79983353199514 0.98859463639290 0.53957731387193 
C29   C     0.90346625439994 0.92151027961911 0.26018610764907 
C30   C     0.90148820740110 0.92788494765719 0.41580405323786 
H1    H     0.73490520526986 0.34695286108270 0.19230845214711 
H2    H     0.94446315648445 0.35268330331141 0.95608913594463 
H3    H     0.00840063491780 0.35427109374958 0.58147624765004 
H4    H     0.80040616610751 0.38489613825348 0.81731594746685 
H5    H     0.13144632419092 0.33790125049641 0.28644465957211 
H6    H     0.57458121371930 0.41397668269593 0.92716137874653 
H7    H     0.14468236213124 0.33760965185373 0.00039169030922 
H8    H     0.37314357569066 0.42909417339300 0.88680427811929 
H9    H     0.25748711090946 0.40623681494344 0.71656007759704 
H10   H     0.25103507652176 0.34705655377938 0.45230337040789 
H11   H     0.34694998942795 0.25125367042697 0.18804901803114 
H12   H     0.62696102863616 0.09022183393769 0.60371225917860 
H13   H     0.52013804182625 0.12718223336949 0.98430396013921 
H14   H     0.70579972460516 0.00284995336866 0.91291427557282 
H15   H     0.88175567785430 0.91210520706512 0.97244314540312 
H16   H     0.79414385269695 0.98729924314294 0.66466262349704 
H17   H     0.97754928066163 0.86960442341844 0.16434381438747 
H18   H     0.97552780943822 0.88354349895551 0.44434734747883 
