data_stdin
_audit_creation_method 'critic2'
_audit_creation_date 2023-8-11
_chemical_formula_sum 'C30 H18'
_cell_formula_units_Z 4
_cell_length_a        11.5575497064
_cell_length_b        14.0722172904
_cell_length_c        14.3680935994
_cell_angle_alpha        89.9992
_cell_angle_beta        58.9587
_cell_angle_gamma        89.9998
_cell_volume          2002.188223
_space_group_crystal_system monoclinic
_space_group_IT_number 14
_space_group_name_H-M_alt 'P2_1/c'
_space_group_name_Hall '-P 2ybc'
loop_
_symmetry_equiv_pos_site_id
_symmetry_equiv_pos_as_xyz
 1 'x,y,z'
 2 '-x,-y,-z'
 3 '-x,-1/2+y,-1/2-z'
 4 'x,-1/2-y,-1/2+z'
loop_
_atom_site_label
_atom_site_type_symbol
_atom_site_fract_x
_atom_site_fract_y
_atom_site_fract_z
C1    C     0.12568329331644 0.78308978077032 0.57617420022232 
C2    C     0.26310225959543 0.81726262450304 0.50753597947565 
C3    C     0.08341987833554 0.72719621547570 0.67047536903181 
C4    C     0.37923575406813 0.77887528599165 0.50733757183468 
C5    C     0.38948087125798 0.68278840120158 0.53870742345042 
C6    C     0.32024766078870 0.60134932584406 0.52922556401290 
C7    C     0.02354518823110 0.81431497166555 0.55487555869151 
C8    C     0.28346457150423 0.89715302563923 0.43997381668381 
C9    C     0.95020585695453 0.69960123709200 0.73634060422776 
C10   C     0.49275784314425 0.83990503731466 0.47381533834509 
C11   C     0.47767908375321 0.66738761118634 0.57920823194549 
C12   C     0.27850540928202 0.59301015148830 0.45011899360894 
C13   C     0.30316569669664 0.52050014098768 0.59453923219671 
C14   C     0.05624419041963 0.88247723358772 0.47141881379105 
C15   C     0.17930131292455 0.92606859239942 0.42057982643083 
C16   C     0.88867447662149 0.78272699062849 0.62178093397876 
C17   C     0.40759539310574 0.94828680547560 0.39196276769636 
C18   C     0.85172658029924 0.72577844418542 0.71113219438093 
C19   C     0.50544745336161 0.92407177457481 0.41428006262297 
C20   C     0.59146262715848 0.81666363206075 0.50137675106080 
C21   C     0.57730162615906 0.73669121521337 0.56054080393995 
C22   C     0.19638753137193 0.51399681887789 0.45685235686593 
C23   C     0.46888225209544 0.58158778143045 0.63465986766815 
C24   C     0.32636981797297 0.65353083367920 0.35861927597681 
C25   C     0.37727173750691 0.51324875575828 0.64835563074806 
C26   C     0.21797719806462 0.44402538683381 0.60121823989276 
C27   C     0.16203368365125 0.44257141462077 0.53764649955807 
C28   C     0.28662783279595 0.64191669618192 0.28353547864253 
C29   C     0.15523089529500 0.50456041942116 0.37999949665697 
C30   C     0.19739234380295 0.56834187702260 0.29548560898160 
H1    H     0.15582435818580 0.70750237272887 0.69379284258212 
H2    H     0.92136825335339 0.65787795428682 0.80897527871002 
H3    H     0.97844666008918 0.90422008760492 0.45452180918480 
H4    H     0.20057104544382 0.98328143387595 0.36298461776342 
H5    H     0.81344649996445 0.80684101831632 0.60282513706642 
H6    H     0.42090618541413 0.01016052842513 0.34183908408079 
H7    H     0.74738145980325 0.70291055087586 0.76284119938341 
H8    H     0.59529286254147 0.96790304237824 0.38494698028015 
H9    H     0.67399593453680 0.86645552738179 0.47886025182603 
H10   H     0.64608280415451 0.72138555718809 0.58920449245930 
H11   H     0.53616646001900 0.57184167962228 0.66583172348838 
H12   H     0.39802063168531 0.70944730242440 0.34530529176726 
H13   H     0.36740079560234 0.44823035607906 0.69314048926852 
H14   H     0.20047695901416 0.38577382995350 0.65696749977494 
H15   H     0.09606858207278 0.38462503883313 0.54358054176920 
H16   H     0.32617710740056 0.68962358563877 0.21423158075905 
H17   H     0.09026631850994 0.44516266384446 0.38842016402090 
H18   H     0.16373903782826 0.56123185337182 0.23755448035805 
