data_stdin
_audit_creation_method 'critic2'
_audit_creation_date 2023-8-11
_chemical_formula_sum 'C30 H18'
_cell_formula_units_Z 4
_cell_length_a         9.5610722784
_cell_length_b        14.4018384200
_cell_length_c        14.5713658137
_cell_angle_alpha        90.0000
_cell_angle_beta        81.1137
_cell_angle_gamma        90.0000
_cell_volume          1982.350229
_space_group_crystal_system monoclinic
_space_group_IT_number 14
_space_group_name_H-M_alt 'P2_1/c'
_space_group_name_Hall '-P 2ybc'
loop_
_symmetry_equiv_pos_site_id
_symmetry_equiv_pos_as_xyz
 1 'x,y,z'
 2 '-x,-y,-z'
 3 '-x,-1/2+y,-1/2-z'
 4 'x,-1/2-y,-1/2+z'
loop_
_atom_site_label
_atom_site_type_symbol
_atom_site_fract_x
_atom_site_fract_y
_atom_site_fract_z
C1    C     0.12767751168131 0.97369494331959 0.32141901311246 
C2    C     0.02986514288385 0.91111547817386 0.37690484419080 
C3    C     0.08873127149037 0.03080935505453 0.25029337776153 
C4    C     0.90017820200303 0.87681291534004 0.34991204445681 
C5    C     0.87155276254254 0.87029991074868 0.25517439403256 
C6    C     0.97743823944259 0.85942558707938 0.17358258902347 
C7    C     0.26584677168530 0.98682727008144 0.34542843441227 
C8    C     0.06079307263886 0.88605779636324 0.46604614956649 
C9    C     0.18403170085680 0.09161062115655 0.20072446081838 
C10   C     0.79051359615073 0.84755021183091 0.42208585516965 
C11   C     0.72695470296343 0.87407695368255 0.24150979390545 
C12   C     0.11635278160835 0.81876436420525 0.17403385666149 
C13   C     0.94089991082355 0.88491594392472 0.08600119906379 
C14   C     0.29891266589625 0.94872806549011 0.42993545130604 
C15   C     0.19701162465710 0.90485395572939 0.49044514115771 
C16   C     0.36431889534357 0.04483176509042 0.28979139829065 
C17   C     0.95549394824153 0.84362924062700 0.53235038385645 
C18   C     0.32491888126611 0.09619775586364 0.21791729459616 
C19   C     0.82172798836717 0.83046154807182 0.51280773194604 
C20   C     0.64940509419072 0.83762709027926 0.40346543629907 
C21   C     0.61695250308332 0.85776955256930 0.31744523955829 
C22   C     0.22171010373043 0.82795076212051 0.09333360724313 
C23   C     0.69279046289697 0.89372050467947 0.15175777527600 
C24   C     0.15057058466891 0.76296916914755 0.24755585964412 
C25   C     0.79757867250742 0.90484549072319 0.07733507408275 
C26   C     0.04751682427165 0.88974912462318 0.00589874308187 
C27   C     0.18483517504427 0.86753764444529 0.01067167854534 
C28   C     0.28398675160831 0.72488386560500 0.24486063635480 
C29   C     0.35913956498395 0.79175956241997 0.09396145857683 
C30   C     0.39107203284865 0.74157300914158 0.16874026147139 
H1    H     0.97997043809096 0.02937207661482 0.23702158374174 
H2    H     0.14996867694272 0.13764899298854 0.14914589323653 
H3    H     0.40371420120317 0.96117000881996 0.44795772312977 
H4    H     0.21775219666824 0.88258917787200 0.55850714129824 
H5    H     0.47079073489001 0.05067029231362 0.30729774319984 
H6    H     0.98134371140823 0.82649374092174 0.60044291205184 
H7    H     0.39968616352042 0.14305730764036 0.17727817054129 
H8    H     0.73805578897349 0.80508661474182 0.56607550818875 
H9    H     0.56672923334688 0.81866994319543 0.46052296511736 
H10   H     0.50773654078238 0.85785724753693 0.30462180106523 
H11   H     0.58163737380292 0.90154931858121 0.14467495394778 
H12   H     0.06995986130332 0.74851451244136 0.30683958445890 
H13   H     0.77296456692860 0.92488619167642 0.00956243544503 
H14   H     0.01699344459738 0.91411583625440 0.94113537928718 
H15   H     0.26675480796650 0.87526839904701 0.95031847025762 
H16   H     0.30592163178000 0.68159901124913 0.30222383742994 
H17   H     0.43855227259263 0.80234023040091 0.03262592945219 
H18   H     0.49704908208552 0.71375444881884 0.16831205823253 
