data_stdin
_audit_creation_method 'critic2'
_audit_creation_date 2023-8-11
_chemical_formula_sum 'C30 H18'
_cell_formula_units_Z 4
_cell_length_a         8.2530596429
_cell_length_b        11.3653488502
_cell_length_c        22.4593768523
_cell_angle_alpha        90.0005
_cell_angle_beta       110.7804
_cell_angle_gamma        89.9998
_cell_volume          1969.620181
_space_group_crystal_system monoclinic
_space_group_IT_number 14
_space_group_name_H-M_alt 'P2_1/c'
_space_group_name_Hall '-P 2ybc'
loop_
_symmetry_equiv_pos_site_id
_symmetry_equiv_pos_as_xyz
 1 'x,y,z'
 2 '-x,-y,-z'
 3 '-x,-1/2+y,-1/2-z'
 4 'x,-1/2-y,-1/2+z'
loop_
_atom_site_label
_atom_site_type_symbol
_atom_site_fract_x
_atom_site_fract_y
_atom_site_fract_z
C1    C     0.50206087414717 0.23946458616361 0.13912885743521 
C2    C     0.49942501967625 0.36684948425350 0.14366471227692 
C3    C     0.45250195303196 0.17839984547517 0.08041489533196 
C4    C     0.40258142740309 0.44404490905239 0.09226085972630 
C5    C     0.25156215704382 0.40973463306297 0.03843025864489 
C6    C     0.13103278101290 0.31800066136264 0.03914302266173 
C7    C     0.57199137494561 0.17142063452279 0.19614608716948 
C8    C     0.60752188139529 0.41863591561174 0.20181444843165 
C9    C     0.45854507235402 0.05692405125168 0.07799668967192 
C10   C     0.46290678646048 0.56208352372345 0.09342740319187 
C11   C     0.21992041731352 0.47175765576711 0.98022722281477 
C12   C     0.09623841427307 0.28196103856680 0.09541394143794 
C13   C     0.03128082788412 0.26514166425660 0.98008970386827 
C14   C     0.65147550660627 0.22928923203828 0.25589529261162 
C15   C     0.67784931103055 0.34798198880158 0.25779903757453 
C16   C     0.57208057261079 0.04713294026343 0.19250493669145 
C17   C     0.64503425213934 0.54113421675562 0.20462843386818 
C18   C     0.51414030280309 0.99000850152746 0.13444120748778 
C19   C     0.58402719223308 0.60865756491867 0.15078143560938 
C20   C     0.40515629426105 0.63103014294456 0.03683708534833 
C21   C     0.29907090982150 0.58320280213788 0.98068374255660 
C22   C     0.99123580985163 0.18018435392671 0.09229978668405 
C23   C     0.11008011594064 0.42108979547231 0.92189186819392 
C24   C     0.14503816146723 0.34975625501783 0.15201330094512 
C25   C     0.02920710155665 0.31598484807920 0.92182229970260 
C26   C     0.93027015712867 0.16271034693173 0.97899772995502 
C27   C     0.91701634057280 0.11857607219260 0.03359059509281 
C28   C     0.09990138854169 0.31680360069139 0.20334480165186 
C29   C     0.95094313860359 0.14623424811109 0.14612414676930 
C30   C     0.00471797731091 0.21295401761604 0.20104569168733 
H1    H     0.41165966917840 0.22812119251405 0.03630120408580 
H2    H     0.42059345504517 0.01283316921752 0.03205893353089 
H3    H     0.69800805740823 0.17613712001829 0.29903100365916 
H4    H     0.75026338022534 0.39253694707395 0.30229662049432 
H5    H     0.62051470841878 0.99697307431298 0.23658985328715 
H6    H     0.72823378532749 0.57891369655372 0.24960432054530 
H7    H     0.51442138503687 0.89425883419111 0.13237801731916 
H8    H     0.62493063682476 0.69995379980995 0.15146144527102 
H9    H     0.45449913804122 0.72030178927035 0.03848373227687 
H10   H     0.26755955881246 0.63119530285442 0.93606036738427 
H11   H     0.09707228829147 0.46622300914765 0.87769618134811 
H12   H     0.21372528629187 0.43195948323101 0.15405882618020 
H13   H     0.95400001738319 0.27283172886168 0.87725192698188 
H14   H     0.86325885029331 0.11990564949625 0.93341605582511 
H15   H     0.84315712138849 0.03879953236753 0.03258027531485 
H16   H     0.13522378397191 0.37283230110821 0.24540105270429 
H17   H     0.86985132573883 0.06889572032402 0.14245549770112 
H18   H     0.96922941367942 0.18767531425672 0.24150362642384 
