data_stdin
_audit_creation_method 'critic2'
_audit_creation_date 2023-8-11
_chemical_formula_sum 'C30 H18'
_cell_formula_units_Z 2
_cell_length_a        11.4762119303
_cell_length_b         8.7233383478
_cell_length_c        11.7554669413
_cell_angle_alpha        64.7238
_cell_angle_beta       109.7088
_cell_angle_gamma       108.0871
_cell_volume           982.496636
_space_group_crystal_system triclinic
_space_group_IT_number 2
_space_group_name_H-M_alt 'P-1'
_space_group_name_Hall '-P 1'
loop_
_symmetry_equiv_pos_site_id
_symmetry_equiv_pos_as_xyz
 1 'x,y,z'
 2 '-x,-y,-z'
loop_
_atom_site_label
_atom_site_type_symbol
_atom_site_fract_x
_atom_site_fract_y
_atom_site_fract_z
C1    C     0.73674975908872 0.83400691615746 0.12017618471856 
C2    C     0.70728556888944 0.99878792804094 0.09171448337565 
C3    C     0.68363161164019 0.67519664638375 0.20613637701309 
C4    C     0.64636686126683 0.02968775056674 0.16772649147937 
C5    C     0.64515435633460 0.92910105165077 0.30281850561614 
C6    C     0.73909674601126 0.82977453217532 0.39698160864911 
C7    C     0.81530890484127 0.82590642678735 0.05140360975316 
C8    C     0.73513464455274 0.13727146894598 0.97751504563049 
C9    C     0.71578146932832 0.52112486315203 0.23287664938363 
C10   C     0.58021360815887 0.16976317498715 0.10401786660066 
C11   C     0.54249607221409 0.92753256682607 0.34657044376691 
C12   C     0.86959107441281 0.86702792822104 0.39089348116975 
C13   C     0.70240032824161 0.68943946169159 0.50601942586978 
C14   C     0.85292200732066 0.97477870772070 0.94687793258750 
C15   C     0.81002356853558 0.12268941336620 0.90860446571198 
C16   C     0.84970536350959 0.66741788399047 0.08280597361203 
C17   C     0.68562465632885 0.29011343174671 0.92884282044399 
C18   C     0.80283670156368 0.51739416377786 0.17391890181374 
C19   C     0.60353918905249 0.30040013117997 0.98534792778977 
C20   C     0.49143316358814 0.18066221809992 0.15900771389430 
C21   C     0.46639475988812 0.05514890765828 0.27201906869277 
C22   C     0.94727130303247 0.74208052695990 0.47516544626831 
C23   C     0.51595763705980 0.79754585709302 0.46460295666855 
C24   C     0.92840126436198 0.02891777556784 0.31350273295852 
C25   C     0.58827788977981 0.67386134859016 0.53672015554782 
C26   C     0.78106785577923 0.56517869007440 0.58589935085481 
C27   C     0.89746232040013 0.58644261810791 0.56806369790240 
C28   C     0.05441893719693 0.06304130624649 0.31383748641514 
C29   C     0.07518159451637 0.77800917366298 0.47114547708834 
C30   C     0.12824499931703 0.93565150608085 0.39147101534278 
H1    H     0.61383424457156 0.67373728782451 0.25002537848114 
H2    H     0.67154881131780 0.40125257804204 0.29797739539846 
H3    H     0.91202811431926 0.96668774103886 0.89494834539107 
H4    H     0.83296030052561 0.23300322231031 0.82400197732254 
H5    H     0.91220456103797 0.66604910256726 0.03116666787876 
H6    H     0.71008476958863 0.39519173595995 0.84262300787807 
H7    H     0.82889012051132 0.39602838944992 0.19661863928269 
H8    H     0.55692604072038 0.41024569554136 0.94309092327796 
H9    H     0.43904881014266 0.28527644761286 0.10527958026415 
H10   H     0.39097876185993 0.05429109388076 0.30892858204499 
H11   H     0.43444248884291 0.79540395098638 0.49341122775487 
H12   H     0.87428617941765 0.13058108661912 0.25550288577878 
H13   H     0.56291204601877 0.56627792355315 0.62156549174099 
H14   H     0.74450779909304 0.45104796838484 0.66091046704649 
H15   H     0.95625341864316 0.48990046674471 0.62827676412908 
H16   H     0.09757997894520 0.19103226237470 0.25646356076781 
H17   H     0.13181902290090 0.68001261628175 0.53529032163627 
H18   H     0.22765713597102 0.96382002249648 0.39202121342923 
