data_stdin
_audit_creation_method 'critic2'
_audit_creation_date 2023-8-11
_chemical_formula_sum 'C30 H18'
_cell_formula_units_Z 8
_cell_length_a        29.8845746216
_cell_length_b         8.2937439752
_cell_length_c        16.2705829599
_cell_angle_alpha        90.0009
_cell_angle_beta        84.4170
_cell_angle_gamma        89.9974
_cell_volume          4013.615305
_space_group_crystal_system monoclinic
_space_group_IT_number 15
_space_group_name_H-M_alt 'C2/c'
_space_group_name_Hall '-C 2yc'
loop_
_symmetry_equiv_pos_site_id
_symmetry_equiv_pos_as_xyz
 1 'x,y,z'
 2 '-1/2-x,-1/2-y,-z'
 3 '-1/2-x,-1/2+y,-1/2-z'
 4 'x,-y,-1/2+z'
 5 '-1/2+x,-1/2+y,z'
 6 '-x,-y,-z'
 7 '-x,y,-1/2-z'
 8 '-1/2+x,-1/2-y,-1/2+z'
loop_
_atom_site_label
_atom_site_type_symbol
_atom_site_fract_x
_atom_site_fract_y
_atom_site_fract_z
C1    C     0.14093196447102 0.36216353790455 0.05400142415002 
C2    C     0.18115530152507 0.40925570534942 0.00247228186875 
C3    C     0.11746579223335 0.21641866303528 0.04280351160181 
C4    C     0.19512076228879 0.33991137161223 0.92264553039780 
C5    C     0.16501446876650 0.26830400040574 0.86844844414436 
C6    C     0.11834608237747 0.31234211248029 0.86632270441631 
C7    C     0.12645326639263 0.45743040265803 0.12500870120033 
C8    C     0.21018031937259 0.52306849489524 0.03530596834264 
C9    C     0.08044505016759 0.17171170753028 0.09554355191137 
C10   C     0.24195605796849 0.33995133649602 0.89552855821465 
C11   C     0.18301656873918 0.14715942487125 0.81226486704808 
C12   C     0.09980934202088 0.46807331997504 0.89198686871055 
C13   C     0.08921403874005 0.19943486551292 0.83276463928561 
C14   C     0.15315498089236 0.59041361368484 0.14697857721801 
C15   C     0.19464733906749 0.61613337944355 0.10624316065866 
C16   C     0.08748499180118 0.41238575596955 0.17647811264294 
C17   C     0.25525262622370 0.54030005264362 0.99895266751401 
C18   C     0.06458749943813 0.27226583769817 0.16196134020620 
C19   C     0.27145484234986 0.44311995933657 0.93492011380011 
C20   C     0.25875588897839 0.23450211858438 0.83061095685164 
C21   C     0.23046668965688 0.13171243502645 0.79493504897570 
C22   C     0.05205424962825 0.48886896962338 0.90148963454094 
C23   C     0.15314476360208 0.04398788977186 0.77383332165225 
C24   C     0.12667326631922 0.60631202351553 0.90165407451837 
C25   C     0.10757750983519 0.06255364589071 0.78863784506740 
C26   C     0.04172918943097 0.22598761593328 0.84121539051501 
C27   C     0.02351470751898 0.36235166487330 0.87778181642421 
C28   C     0.10782411130563 0.75233129999218 0.92701165088764 
C29   C     0.03351713331197 0.63859859892553 0.92949793887157 
C30   C     0.06085221930318 0.76806519817943 0.94330267272645 
H1    H     0.12952132030641 0.13573072561144 0.99297447286839 
H2    H     0.06388974921403 0.05708751775614 0.08599618155505 
H3    H     0.14111115013993 0.66384992167448 0.19990287547834 
H4    H     0.21682185818051 0.70809155116371 0.12760770739650 
H5    H     0.07667124417284 0.48795055869705 0.22943554780814 
H6    H     0.27722603253127 0.62543697946517 0.02638838136798 
H7    H     0.03489944202599 0.23875024383694 0.20254401418385 
H8    H     0.30695172111257 0.44522812288499 0.91228013276724 
H9    H     0.29491135266820 0.22856576327036 0.81393635881240 
H10   H     0.24372057208173 0.03999089438728 0.75122736744204 
H11   H     0.16716832674522 0.94697598876501 0.73436668142990 
H12   H     0.16282631093777 0.59857940799297 0.88713064652748 
H13   H     0.08498482189440 0.97675850015751 0.76343267593737 
H14   H     0.02023406274263 0.13403287926010 0.81768904918281 
H15   H     0.98725882806332 0.38057859452670 0.88563270564658 
H16   H     0.12950513585611 0.85628601381001 0.93280841231533 
H17   H     0.99710533804490 0.65016546460847 0.93857084038977 
H18   H     0.04613470580021 0.88309501513859 0.96394905066448 
