data_stdin
_audit_creation_method 'critic2'
_audit_creation_date 2023-8-11
_chemical_formula_sum 'C30 H18'
_cell_formula_units_Z 4
_cell_length_a        10.8112621383
_cell_length_b        11.1236299502
_cell_length_c        16.6460003824
_cell_angle_alpha        89.9996
_cell_angle_beta        72.7661
_cell_angle_gamma        90.0003
_cell_volume          1911.979218
_space_group_crystal_system monoclinic
_space_group_IT_number 14
_space_group_name_H-M_alt 'P2_1/c'
_space_group_name_Hall '-P 2ybc'
loop_
_symmetry_equiv_pos_site_id
_symmetry_equiv_pos_as_xyz
 1 'x,y,z'
 2 '-x,-y,-z'
 3 '-x,-1/2+y,-1/2-z'
 4 'x,-1/2-y,-1/2+z'
loop_
_atom_site_label
_atom_site_type_symbol
_atom_site_fract_x
_atom_site_fract_y
_atom_site_fract_z
C1    C     0.90276991100083 0.16321808855204 0.69119989913174 
C2    C     0.77743507947895 0.10734871971130 0.72836294651908 
C3    C     0.94047290062047 0.27358785288242 0.71946470799399 
C4    C     0.66604076071574 0.16645466184209 0.78569355624491 
C5    C     0.64057778260396 0.29463125658478 0.78964213457415 
C6    C     0.69413596109299 0.37958953296717 0.72228954701935 
C7    C     0.99795867950370 0.10214049669879 0.62525455433949 
C8    C     0.76381910444703 0.98420171148360 0.70927599832829 
C9    C     0.05850870361608 0.32649150366497 0.68004784716622 
C10   C     0.57343558127150 0.09137815049519 0.84303474910464 
C11   C     0.55494237304409 0.34173903364244 0.86586715166926 
C12   C     0.73387384096636 0.35002974821162 0.63345646733947 
C13   C     0.70259477153061 0.50204620063180 0.74444045060104 
C14   C     0.97288213262057 0.98363883388839 0.60146272209129 
C15   C     0.86098385231496 0.92611054631283 0.64350663463313 
C16   C     0.11795991537430 0.15850903980004 0.58527116057579 
C17   C     0.65699303245894 0.91570615353547 0.75887107058479 
C18   C     0.14732125315550 0.27017384101137 0.61087980571996 
C19   C     0.57204937608409 0.96534264739610 0.82860754428637 
C20   C     0.47957197380495 0.14187798236230 0.91369622649257 
C21   C     0.47613496469165 0.26314429652020 0.92733721527633 
C22   C     0.80403844757102 0.43712528767297 0.57384945669005 
C23   C     0.54989336346944 0.46788851621860 0.88133688072964 
C24   C     0.69549580375692 0.24293645856933 0.60124617672732 
C25   C     0.63058040419595 0.54433117048468 0.82555400716984 
C26   C     0.77839790207328 0.58464195590149 0.68420648994581 
C27   C     0.83100178992744 0.55259501490762 0.60203053324772 
C28   C     0.73185061924211 0.21937591051662 0.51586107528644 
C29   C     0.84115891447581 0.41019785750788 0.48681421158771 
C30   C     0.80760774379851 0.30238276540383 0.45795956176113 
H1    H     0.87575103522263 0.31894134574690 0.77330533000027 
H2    H     0.08284103638997 0.41193449638865 0.70323480824339 
H3    H     0.04588920431096 0.93839877943276 0.55117891412032 
H4    H     0.84450504823228 0.83358901854127 0.62797297000255 
H5    H     0.18681960950854 0.11081077574925 0.53395975061441 
H6    H     0.64842351412157 0.82192513654623 0.74265489928140 
H7    H     0.23919937053839 0.31382549412395 0.57971751088207 
H8    H     0.49771995568245 0.91116298391371 0.87179840528590 
H9    H     0.41325418448371 0.08121846257445 0.95723956286651 
H10   H     0.41073411775445 0.30217613967376 0.98417733349225 
H11   H     0.48339694494539 0.50125093974954 0.93972012217816 
H12   H     0.63380759324944 0.17901849916892 0.64419239330569 
H13   H     0.63526194994676 0.63949497320841 0.83977314936933 
H14   H     0.79325600629351 0.67411773733954 0.70612157762546 
H15   H     0.88867033426211 0.61593681037830 0.55610972279226 
H16   H     0.69996188718939 0.13685125012799 0.49288006421764 
H17   H     0.89536290757255 0.47741111052969 0.44271947782785 
H18   H     0.83657838263963 0.28341157304914 0.39088635024274 
