data_stdin
_audit_creation_method 'critic2'
_audit_creation_date 2023-8-11
_chemical_formula_sum 'C30 H18'
_cell_formula_units_Z 4
_cell_length_a        15.1377196101
_cell_length_b         9.6001220440
_cell_length_c        13.4688857100
_cell_angle_alpha        89.9997
_cell_angle_beta        90.0000
_cell_angle_gamma        89.9981
_cell_volume          1957.351750
_space_group_crystal_system orthorhombic
_space_group_IT_number 33
_space_group_name_H-M_alt 'Pna2_1'
_space_group_name_Hall 'P 2c -2n'
loop_
_symmetry_equiv_pos_site_id
_symmetry_equiv_pos_as_xyz
 1 'x,y,z'
 2 '-x,-y,-1/2+z'
 3 '-1/2-x,-1/2+y,-1/2+z'
 4 '-1/2+x,-1/2-y,z'
loop_
_atom_site_label
_atom_site_type_symbol
_atom_site_fract_x
_atom_site_fract_y
_atom_site_fract_z
C1    C     0.83501950372629 0.15245039362860 0.00752986150753 
C2    C     0.82161352563748 0.28683309462573 0.05474211421877 
C3    C     0.79361989349763 0.11182819267440 0.91761578337751 
C4    C     0.75083568397001 0.38234543423203 0.03040412061208 
C5    C     0.66691132018407 0.34421195611041 0.98569998859147 
C6    C     0.62330336515819 0.21102120591874 0.99636400142545 
C7    C     0.89810343183971 0.05779880874333 0.04890922819892 
C8    C     0.88436587697072 0.32986059119662 0.12736499775043 
C9    C     0.80767651632640 0.98226705697824 0.87549667740085 
C10   C     0.76436894206404 0.52667048196044 0.05161578378031 
C11   C     0.62329181695900 0.44806740223042 0.92778951197177 
C12   C     0.63790926107473 0.11579843906934 0.07827071176983 
C13   C     0.55804750639367 0.17374333510432 0.92514316197327 
C14   C     0.95312315256722 0.10106453443634 0.12897541081164 
C15   C     0.94837904020787 0.23395182955519 0.16444773033384 
C16   C     0.90925546319541 0.92413695473442 0.00641190442184 
C17   C     0.88559861970228 0.47021591764830 0.16171354856692 
C18   C     0.86431287615676 0.88534548937843 0.92165340939631 
C19   C     0.83146280721669 0.56779426760196 0.11973049951209 
C20   C     0.71140420122928 0.62945401646934 0.00392660519752 
C21   C     0.64791174492031 0.59058808086051 0.93713802034625 
C22   C     0.60362720219852 0.97711072174200 0.07248326214052 
C23   C     0.55411054690374 0.40947877992668 0.86197864062344 
C24   C     0.67842039162427 0.15607814648910 0.16862319855917 
C25   C     0.52645494032894 0.27432791900420 0.85612174094665 
C26   C     0.52244239544643 0.03606081622792 0.92352406944711 
C27   C     0.54806431108878 0.93879519042798 0.99148813752142 
C28   C     0.69234600173314 0.06224456572954 0.24485775427567 
C29   C     0.62035726166966 0.88189509375784 0.15062057441417 
C30   C     0.66556876187643 0.92238923136613 0.23483776873932 
H1    H     0.74979224846568 0.18387979056421 0.87990219652011 
H2    H     0.77416529484056 0.95599939880903 0.80640359223833 
H3    H     0.00250144545964 0.02839557574719 0.15686152650421 
H4    H     0.99465115526706 0.27059854277821 0.22063862800037 
H5    H     0.95626330199822 0.85350856171025 0.04130314595142 
H6    H     0.93412646620443 0.49966762556558 0.21749260623565 
H7    H     0.87375668858867 0.78220364535158 0.88962091415737 
H8    H     0.83731003847168 0.67774253885257 0.13884537687403 
H9    H     0.72591382686787 0.73881638250752 0.01762183752636 
H10   H     0.61317476961336 0.66786740851580 0.89259096745428 
H11   H     0.52433274239941 0.49011676874616 0.81636072368016 
H12   H     0.69784387606886 0.26390293276130 0.17899209456010 
H13   H     0.47604955927508 0.24301715312671 0.80308867699040 
H14   H     0.47364416966418 0.01084977966308 0.86681764391329 
H15   H     0.52212626935530 0.83316252722123 0.98862511747039 
H16   H     0.72416122699324 0.09627666828490 0.31307989728590 
H17   H     0.59569980876000 0.77571952824810 0.14317660923912 
H18   H     0.67806484436499 0.84846203105129 0.29447893321522 
