data_stdin
_audit_creation_method 'critic2'
_audit_creation_date 2023-8-11
_chemical_formula_sum 'C30 H18'
_cell_formula_units_Z 2
_cell_length_a         9.2794682198
_cell_length_b        13.0754669166
_cell_length_c         9.8790910045
_cell_angle_alpha       103.3976
_cell_angle_beta       117.8306
_cell_angle_gamma        70.9238
_cell_volume           997.305222
_space_group_crystal_system triclinic
_space_group_IT_number 2
_space_group_name_H-M_alt 'P-1'
_space_group_name_Hall '-P 1'
loop_
_symmetry_equiv_pos_site_id
_symmetry_equiv_pos_as_xyz
 1 'x,y,z'
 2 '-x,-y,-z'
loop_
_atom_site_label
_atom_site_type_symbol
_atom_site_fract_x
_atom_site_fract_y
_atom_site_fract_z
C1    C     0.32651566124228 0.36015324592084 0.46043734212551 
C2    C     0.47012152333209 0.32036239792943 0.59950821452725 
C3    C     0.15775659469335 0.38599058578619 0.44081884507997 
C4    C     0.46192176134877 0.27129336915947 0.71205270713136 
C5    C     0.33443756549941 0.21707878705187 0.68162986367395 
C6    C     0.23469044174941 0.16893558989740 0.53279584146821 
C7    C     0.35503643578650 0.38262735856800 0.34122952072682 
C8    C     0.62820573233154 0.33432547722278 0.62889156594651 
C9    C     0.02389346468468 0.42391756612971 0.30647105205535 
C10   C     0.59034277784541 0.27609022911693 0.86550969023577 
C11   C     0.30610037480255 0.21004839524452 0.80915546056417 
C12   C     0.28375186762589 0.13149713323255 0.40641780030053 
C13   C     0.08062102902136 0.15192261527980 0.50996308625269 
C14   C     0.52168901572361 0.37820539173735 0.36733778370654 
C15   C     0.65158918183901 0.36110930971729 0.50940219902238 
C16   C     0.21609623305392 0.41703637332193 0.20239310888713 
C17   C     0.76339727282514 0.32297840750502 0.77848012467340 
C18   C     0.05278600311886 0.43685294147584 0.18422937656798 
C19   C     0.74103345684952 0.30159939974532 0.89552266477159 
C20   C     0.56761183783776 0.25645790994996 0.98926979802018 
C21   C     0.42348509077119 0.23221759664931 0.96256650772789 
C22   C     0.15997467636802 0.10815357971299 0.25600779207608 
C23   C     0.16117463785161 0.17940612731288 0.78405001177751 
C24   C     0.45245037987876 0.10701690106957 0.42625849584569 
C25   C     0.04619392795380 0.15785469291601 0.63801626174198 
C26   C     0.96003054447850 0.12789924745285 0.35831483744002 
C27   C     0.99461929292391 0.11323836299863 0.23419540854374 
C28   C     0.49518186619780 0.06751343487164 0.30378757805924 
C29   C     0.20542823752427 0.07234611222271 0.13136450930160 
C30   C     0.37045864028231 0.05197850065986 0.15418178967891 
H1    H     0.13258799470816 0.37786892193728 0.53414754038960 
H2    H     0.89567371609469 0.44437238516103 0.29589734345042 
H3    H     0.54025060375343 0.39709885787276 0.27573675248410 
H4    H     0.77595887348435 0.36776315037827 0.53489537904341 
H5    H     0.24161076150133 0.43099741513731 0.11207272671714 
H6    H     0.88168967219951 0.33659983552624 0.79866315358275 
H7    H     0.94685702893683 0.46492011554666 0.07786914076251 
H8    H     0.83969102075835 0.30052958580381 0.01264538906750 
H9    H     0.66484992470887 0.26492158939197 0.10572235130483 
H10   H     0.39950119175604 0.22467529550260 0.05727751390712 
H11   H     0.14164230284299 0.17720941064641 0.88367797297308 
H12   H     0.55158450335181 0.11505370958497 0.54105477802417 
H13   H     0.92995644494716 0.14098677136455 0.61787444864011 
H14   H     0.83875473356421 0.12302928449532 0.34436143796303 
H15   H     0.90019198828323 0.09902998904149 0.11819602379001 
H16   H     0.62691090689970 0.04560896376697 0.32406712654287 
H17   H     0.10760696686456 0.05791241511747 0.01733135165038 
H18   H     0.40465753489838 0.02086466222204 0.05812359148483 
