data_stdin
_audit_creation_method 'critic2'
_audit_creation_date 2023-8-11
_chemical_formula_sum 'C30 H18'
_cell_formula_units_Z 4
_cell_length_a         9.2161594245
_cell_length_b        16.9925281800
_cell_length_c        12.5626719103
_cell_angle_alpha        89.9999
_cell_angle_beta        96.6364
_cell_angle_gamma        90.0008
_cell_volume          1954.205677
_space_group_crystal_system monoclinic
_space_group_IT_number 9
_space_group_name_H-M_alt 'Cc'
_space_group_name_Hall 'C -2yc'
loop_
_symmetry_equiv_pos_site_id
_symmetry_equiv_pos_as_xyz
 1 'x,y,z'
 2 'x,-y,-1/2+z'
 3 '-1/2+x,-1/2+y,z'
 4 '-1/2+x,-1/2-y,-1/2+z'
loop_
_atom_site_label
_atom_site_type_symbol
_atom_site_fract_x
_atom_site_fract_y
_atom_site_fract_z
C1    C     0.99722078267367 0.04499258690934 0.00040318910054 
C2    C     0.90669904989425 0.98335299603070 0.03794161072596 
C3    C     0.14473207162067 0.03321514107875 0.98322521622560 
C4    C     0.96213149833094 0.91102144809166 0.08818844076809 
C5    C     0.10858351100155 0.89969042398398 0.14219241667759 
C6    C     0.20045651410098 0.96099287201879 0.19332053984753 
C7    C     0.93315533091140 0.11959611264737 0.97003618982802 
C8    C     0.75256716635726 0.99350953067983 0.01917734139699 
C9    C     0.22762075708891 0.09312057199308 0.94702413711663 
C10   C     0.86574789046107 0.84498534871165 0.08388602628055 
C11   C     0.16528944100866 0.82145982311689 0.14663591533688 
C12   C     0.14604119444047 0.03350007055780 0.23503129342339 
C13   C     0.35368184781198 0.94736135974987 0.21076266860994 
C14   C     0.77954150431286 0.13063470354887 0.96914244858283 
C15   C     0.69208342928097 0.06856607012545 0.98796113609531 
C16   C     0.02105047816076 0.18039289090180 0.93469682972790 
C17   C     0.65728228000719 0.92888357904470 0.03033953769202 
C18   C     0.16667102871915 0.16801585123846 0.92429259396786 
C19   C     0.71304040496503 0.85573748275158 0.05543049043342 
C20   C     0.92170564434344 0.76787297696970 0.10673733792797 
C21   C     0.06894239891977 0.75612411556335 0.12812939941889 
C22   C     0.24672687910508 0.09537123444088 0.26760145905965 
C23   C     0.31767713065749 0.80837595699671 0.17356022241042 
C24   C     0.99962252823462 0.04319477367380 0.25672215747850 
C25   C     0.41021045838991 0.87028350089772 0.19852835855600 
C26   C     0.45145264019434 0.01032014894897 0.24390585392721 
C27   C     0.39979223453202 0.08309776325673 0.26620529755453 
C28   C     0.95293104254424 0.11155980551336 0.30173775158675 
C29   C     0.19499931021433 0.16609096947749 0.30940863122261 
C30   C     0.05052102650361 0.17450988851792 0.32644927149093 
H1    H     0.19245898132277 0.97506328597762 0.99465029728888 
H2    H     0.33957815383363 0.08134748821528 0.93241925894694 
H3    H     0.73273056332139 0.18832644490748 0.94893545612282 
H4    H     0.57379676853737 0.07519887248421 0.98080461080235 
H5    H     0.97044817344865 0.23699580454848 0.91319117728640 
H6    H     0.53981133062531 0.93816117218146 0.01447097922838 
H7    H     0.23271023688082 0.21475527580387 0.89541417320031 
H8    H     0.64181007160097 0.80474021221793 0.05695234017155 
H9    H     0.84570380426075 0.71857995812597 0.10177880016861 
H10   H     0.11448572653712 0.69696386413305 0.13632151936736 
H11   H     0.35896112620264 0.74834201323594 0.17224446594491 
H12   H     0.92381713690867 0.99444403662978 0.24248052892339 
H13   H     0.52763417086384 0.86122600524908 0.21479421979741 
H14   H     0.56848442364876 0.99864782144799 0.25121880122270 
H15   H     0.47476090293002 0.13128245642772 0.28971382680495 
H16   H     0.84090284228818 0.11576031064421 0.32098482957094 
H17   H     0.27317372009079 0.21312631673192 0.33084613515726 
H18   H     0.01305628595045 0.22819254225522 0.36195433572363 
