data_stdin
_audit_creation_method 'critic2'
_audit_creation_date 2023-8-11
_chemical_formula_sum 'C30 H18'
_cell_formula_units_Z 4
_cell_length_a        11.5487242212
_cell_length_b        14.1022854000
_cell_length_c        14.6162884007
_cell_angle_alpha        89.9999
_cell_angle_beta        55.6615
_cell_angle_gamma        90.0001
_cell_volume          1965.591616
_space_group_crystal_system monoclinic
_space_group_IT_number 14
_space_group_name_H-M_alt 'P2_1/c'
_space_group_name_Hall '-P 2ybc'
loop_
_symmetry_equiv_pos_site_id
_symmetry_equiv_pos_as_xyz
 1 'x,y,z'
 2 '-x,-y,-z'
 3 '-x,-1/2+y,-1/2-z'
 4 'x,-1/2-y,-1/2+z'
loop_
_atom_site_label
_atom_site_type_symbol
_atom_site_fract_x
_atom_site_fract_y
_atom_site_fract_z
C1    C     0.92961381716855 0.32377657481105 0.50294629515770 
C2    C     0.79886479620240 0.37294827362070 0.58003706927853 
C3    C     0.95421319482966 0.27188858822180 0.41065473051702 
C4    C     0.66744551382834 0.35713582140976 0.59070557680978 
C5    C     0.62448816942021 0.27022601227443 0.56393667784702 
C6    C     0.67497337308245 0.17567525037129 0.56231004882597 
C7    C     0.04567004943541 0.33455799720902 0.51268776223033 
C8    C     0.80262352608411 0.44571127178720 0.64592973511665 
C9    C     0.08205964954897 0.22951999627282 0.33551219075593 
C10   C     0.57006390790749 0.43432112479032 0.63236675022374 
C11   C     0.52137713260631 0.27810573636348 0.53902829064408 
C12   C     0.73348948625970 0.14769823706351 0.62372560487291 
C13   C     0.66029132121037 0.10380246134557 0.50107257623062 
C14   C     0.03548560980081 0.39843919206798 0.59251800201438 
C15   C     0.92030363427294 0.45490788103001 0.65314020604803 
C16   C     0.17345941066981 0.28712333980405 0.43754998720757 
C17   C     0.69101840760885 0.51233035051224 0.70300383136998 
C18   C     0.19247367695385 0.23493771221057 0.35013183379079 
C19   C     0.58346050608789 0.51085709615092 0.68930980989907 
C20   C     0.45889424939493 0.43591503807502 0.61704028691519 
C21   C     0.44243230020217 0.36291072985499 0.56390024690029 
C22   C     0.80200735686184 0.05774565662374 0.60180620928235 
C23   C     0.49856418023153 0.20145358363925 0.48754254062628 
C24   C     0.71648337229703 0.20179723396371 0.71207373349130 
C25   C     0.57422453104115 0.11954003114424 0.46124653871489 
C26   C     0.72699300225322 0.01389742149198 0.48291157666404 
C27   C     0.79991765714782 0.99261618089194 0.52808299409860 
C28   C     0.77747645218583 0.17464863287044 0.76644498126834 
C29   C     0.86512302334212 0.03196628493366 0.65782461614284 
C30   C     0.85644955867908 0.09059760150563 0.73718095979479 
H1    H     0.87176037084220 0.26663123314429 0.39674589354409 
H2    H     0.09707570378313 0.19232616148486 0.26422994870746 
H3    H     0.12483600237049 0.40597227548741 0.59863367919748 
H4    H     0.91581157226161 0.50934099262430 0.70794275110482 
H5    H     0.25966168144310 0.29620847822304 0.44726416951105 
H6    H     0.69815493934193 0.56820995958616 0.75107533413289 
H7    H     0.29223547910060 0.20036587157698 0.29154149798747 
H8    H     0.50396202511235 0.56623504882156 0.72408859377070 
H9    H     0.39136857930917 0.49802069045213 0.64455940485644 
H10   H     0.36565423138619 0.36720691440140 0.54307703921270 
H11   H     0.42337319062132 0.21090092515054 0.46566533783835 
H12   H     0.65277506369256 0.26547532156465 0.73935646917873 
H13   H     0.56435858153011 0.06365105921197 0.41466053382223 
H14   H     0.71727168422163 0.96210311402405 0.43229054870168 
H15   H     0.85240411583501 0.92455342042831 0.51240072204286 
H16   H     0.76131098998774 0.21867129330665 0.83361114644984 
H17   H     0.91881779898477 0.96399365916120 0.63791112922303 
H18   H     0.90547938620049 0.07076626252902 0.77986623664058 
