data_stdin
_audit_creation_method 'critic2'
_audit_creation_date 2023-8-11
_chemical_formula_sum 'C30 H18'
_cell_formula_units_Z 8
_cell_length_a        11.0755525120
_cell_length_b        24.0168080100
_cell_length_c        14.7697948004
_cell_angle_alpha        90.0005
_cell_angle_beta        90.0000
_cell_angle_gamma        89.9989
_cell_volume          3928.756824
_space_group_crystal_system orthorhombic
_space_group_IT_number 61
_space_group_name_H-M_alt 'Pbca'
_space_group_name_Hall '-P 2ac 2ab'
loop_
_symmetry_equiv_pos_site_id
_symmetry_equiv_pos_as_xyz
 1 'x,y,z'
 2 '-x,-y,-z'
 3 '-1/2-x,-y,-1/2+z'
 4 '-1/2+x,y,-1/2-z'
 5 '-1/2+x,-1/2-y,-z'
 6 '-1/2-x,-1/2+y,z'
 7 '-x,-1/2+y,-1/2-z'
 8 'x,-1/2-y,-1/2+z'
loop_
_atom_site_label
_atom_site_type_symbol
_atom_site_fract_x
_atom_site_fract_y
_atom_site_fract_z
C1    C     0.26307329433449 0.90876533637332 0.56684448585399 
C2    C     0.28563848772694 0.94982091547495 0.49650535538784 
C3    C     0.34706178539641 0.86690762636948 0.59174935085531 
C4    C     0.37873814267527 0.94529553083110 0.42807415179423 
C5    C     0.43546703207971 0.89388555088076 0.39837999024185 
C6    C     0.37921772684866 0.83955138634019 0.39768976254093 
C7    C     0.15632184336219 0.91341433132424 0.62123520674130 
C8    C     0.21652137340061 0.99976877304006 0.49983149800070 
C9    C     0.32268343816580 0.82914770941486 0.66016508929046 
C10   C     0.42162263144936 0.99571401810703 0.38801986880505 
C11   C     0.55677717956039 0.89757113471546 0.36604444886833 
C12   C     0.24982079973453 0.83015475770434 0.39255236843582 
C13   C     0.45571226220358 0.79190303181357 0.39679283241202 
C14   C     0.08189641528755 0.96160630335511 0.61415795663332 
C15   C     0.11529518171544 0.00445351005025 0.55899055402970 
C16   C     0.12981863025999 0.87210642867778 0.68677408859805 
C17   C     0.24979695419644 0.04667281232274 0.44648168964857 
C18   C     0.21100538678631 0.83015360735790 0.70588330755711 
C19   C     0.35369968951233 0.04571364437884 0.39669148253253 
C20   C     0.53406105713224 0.99652810826477 0.34130738261603 
C21   C     0.60433986886877 0.94983034878190 0.33802868978693 
C22   C     0.20382027159267 0.77508014253611 0.40666738448971 
C23   C     0.62918967187014 0.84876968607063 0.36030879206396 
C24   C     0.16614070405136 0.87163184908114 0.36605242509709 
C25   C     0.58207087530256 0.79783403962820 0.38168153021654 
C26   C     0.40656682657540 0.73756576141662 0.41080351177940 
C27   C     0.28522533340122 0.72977265257368 0.42035889472825 
C28   C     0.04402937043212 0.86045499484821 0.35819294545400 
C29   C     0.07818923173186 0.76519021926016 0.40112027025695 
C30   C     0.99873069332630 0.80711210769683 0.37781367202309 
H1    H     0.43399155286474 0.86543391657110 0.55783606267621 
H2    H     0.39016828290843 0.79839753374931 0.67945326983723 
H3    H     0.00182034715799 0.96486257863686 0.65660614176176 
H4    H     0.06328099035143 0.04286543316506 0.55734482499035 
H5    H     0.04466973049034 0.87507278842103 0.72360079968605 
H6    H     0.19456803139719 0.08414677218812 0.45059340183899 
H7    H     0.19105712548181 0.79894193496676 0.75712228728908 
H8    H     0.38519136754289 0.08277156987094 0.36147955020805 
H9    H     0.56682559823729 0.03598702453281 0.31465122059827 
H10   H     0.69601460968144 0.95159038439671 0.31150421540365 
H11   H     0.72291833611380 0.85312922428351 0.33909095856751 
H12   H     0.19855991404681 0.91286419020029 0.34842739501370 
H13   H     0.63825313591788 0.76065544106906 0.38259825807570 
H14   H     0.46905216191409 0.70264381895173 0.41488249607592 
H15   H     0.24808088725530 0.68857741679532 0.43396340317145 
H16   H     0.98346988654785 0.89292242989326 0.33402046718585 
H17   H     0.04551787687228 0.72328163291886 0.41494720374190 
H18   H     0.90238416876226 0.79858009435017 0.37318447700012 
