data_stdin
_audit_creation_method 'critic2'
_audit_creation_date 2023-8-11
_chemical_formula_sum 'C30 H18'
_cell_formula_units_Z 4
_cell_length_a         9.1535720747
_cell_length_b        23.9314576300
_cell_length_c        10.1491843313
_cell_angle_alpha        89.9984
_cell_angle_beta        61.2650
_cell_angle_gamma        90.0009
_cell_volume          1949.473728
_space_group_crystal_system monoclinic
_space_group_IT_number 14
_space_group_name_H-M_alt 'P2_1/c'
_space_group_name_Hall '-P 2ybc'
loop_
_symmetry_equiv_pos_site_id
_symmetry_equiv_pos_as_xyz
 1 'x,y,z'
 2 '-x,-y,-z'
 3 '-x,-1/2+y,-1/2-z'
 4 'x,-1/2-y,-1/2+z'
loop_
_atom_site_label
_atom_site_type_symbol
_atom_site_fract_x
_atom_site_fract_y
_atom_site_fract_z
C1    C     0.65619481060915 0.43302807229166 0.88408711691139 
C2    C     0.69996342684823 0.41456844459392 0.99675369962457 
C3    C     0.49055640222631 0.44505888508318 0.91724759054157 
C4    C     0.58518095694566 0.38907447788098 0.13858026087040 
C5    C     0.43253112367376 0.36013129374070 0.16899394957884 
C6    C     0.39789085227310 0.33432971628411 0.05766807413096 
C7    C     0.78604156925507 0.44430485150210 0.73502621748093 
C8    C     0.86701431494382 0.42375878607754 0.96619705610436 
C9    C     0.45404644485948 0.46399013634350 0.80770510115582 
C10   C     0.62529141350137 0.39265071777307 0.25815746428313 
C11   C     0.30577738495494 0.35657501827683 0.32239742757040 
C12   C     0.52391214406235 0.31493461775287 0.91121592245084 
C13   C     0.22838677016622 0.32499996854395 0.09602240253877 
C14   C     0.95594294158482 0.44204318960603 0.70251455472447 
C15   C     0.99383651983926 0.43556480647320 0.81633020831282 
C16   C     0.74487807716261 0.46117175429064 0.62325158869471 
C17   C     0.90797741811381 0.42127429962830 0.08477131978294 
C18   C     0.58144283676593 0.47088545310421 0.65849264236977 
C19   C     0.78717735418127 0.40987166620372 0.22837860739597 
C20   C     0.50368587803160 0.37958323805719 0.40829825949653 
C21   C     0.34494916718572 0.36616156464688 0.44032482793353 
C22   C     0.47637326656123 0.30024644634325 0.80047990925612 
C23   C     0.13950943625988 0.34271268275704 0.35857705549822 
C24   C     0.69225031384671 0.30596827730180 0.87426306656547 
C25   C     0.10011859922430 0.33093402630864 0.24762818069560 
C26   C     0.18514438421565 0.30899428172593 0.98345160332872 
C27   C     0.30471769894359 0.29958940759311 0.83865565079992 
C28   C     0.80924917494512 0.28749957668679 0.73368081911538 
C29   C     0.59928039246514 0.28346805298222 0.65551016422369 
C30   C     0.76357970114587 0.27749668364365 0.62163852648221 
H1    H     0.39111159239005 0.44156120270303 0.03238348118931 
H2    H     0.32645261435865 0.47519187429457 0.83809936711580 
H3    H     0.05368513054408 0.44853130988054 0.58727903756113 
H4    H     0.12227377835328 0.43826645252968 0.79478952141537 
H5    H     0.84580612945849 0.46811272725242 0.50956698334698 
H6    H     0.03514681172127 0.43047462792181 0.06015538994621 
H7    H     0.55176324101954 0.48563936759014 0.57271695323224 
H8    H     0.81424363557184 0.41171693172371 0.32168480732688 
H9    H     0.53791402071112 0.38277798634581 0.49703542147548 
H10   H     0.24708855476288 0.36043828439419 0.55594619357774 
H11   H     0.04395481308610 0.34322233824784 0.47615319217519 
H12   H     0.72973694992267 0.31290200805528 0.95923783835890 
H13   H     0.97167882364266 0.32339978751058 0.27366418360302 
H14   H     0.05341440024000 0.30517863227318 0.01643323527206 
H15   H     0.27150698507852 0.28813388835628 0.75251604973099 
H16   H     0.93736739288446 0.28072541650721 0.70988942670913 
H17   H     0.56069423882002 0.27395219937753 0.57191606506862 
H18   H     0.85660681437746 0.26414642890520 0.50991157918886 
