data_stdin
_audit_creation_method 'critic2'
_audit_creation_date 2023-8-11
_chemical_formula_sum 'C30 H18'
_cell_formula_units_Z 8
_cell_length_a        21.2294643698
_cell_length_b         8.8806945700
_cell_length_c        20.4537152188
_cell_angle_alpha        90.0000
_cell_angle_beta        87.8175
_cell_angle_gamma        90.0001
_cell_volume          3853.390512
_space_group_crystal_system monoclinic
_space_group_IT_number 15
_space_group_name_H-M_alt 'C2/c'
_space_group_name_Hall '-C 2yc'
loop_
_symmetry_equiv_pos_site_id
_symmetry_equiv_pos_as_xyz
 1 'x,y,z'
 2 '-x,-y,-z'
 3 '-x,y,-1/2-z'
 4 'x,-y,-1/2+z'
 5 '-1/2+x,-1/2+y,z'
 6 '-1/2-x,-1/2-y,-z'
 7 '-1/2-x,-1/2+y,-1/2-z'
 8 '-1/2+x,-1/2-y,-1/2+z'
loop_
_atom_site_label
_atom_site_type_symbol
_atom_site_fract_x
_atom_site_fract_y
_atom_site_fract_z
C1    C     0.36788563165770 0.44545084275476 0.08428852239027 
C2    C     0.43326446598469 0.39895199630226 0.08817574237203 
C3    C     0.34906776869675 0.59812954949476 0.08007775506037 
C4    C     0.48446015158784 0.49747785618096 0.10523777407151 
C5    C     0.47768893860382 0.63447099479226 0.14331448186828 
C6    C     0.42739675888046 0.66549679971218 0.19099019334087 
C7    C     0.32004667431748 0.33355739550871 0.07721054864511 
C8    C     0.44818866346946 0.24903580178454 0.06870134060949 
C9    C     0.28671795324722 0.63869776894148 0.07345262578997 
C10   C     0.54643683538600 0.45909061352784 0.08125769103497 
C11   C     0.52424141123434 0.74851595501393 0.13259478560161 
C12   C     0.39275041574422 0.55097670227317 0.22765526457172 
C13   C     0.41244409553356 0.81856405628443 0.20476920703184 
C14   C     0.33729708619722 0.17905154581522 0.06949459956389 
C15   C     0.39931662514222 0.14017254386757 0.06189979313754 
C16   C     0.25623929329826 0.37762001576702 0.07276869751786 
C17   C     0.51198156757942 0.20711257179022 0.05448064770114 
C18   C     0.23935839536012 0.52774839694365 0.07136192255991 
C19   C     0.55906301090267 0.31164523582467 0.05693808939549 
C20   C     0.59540451179387 0.56845569700505 0.08054527080680 
C21   C     0.58292900641941 0.71240623382924 0.10068549439731 
C22   C     0.33601700888538 0.59149574622650 0.26343709251370 
C23   C     0.51147075445749 0.89846970189791 0.15358129083855 
C24   C     0.41534160615138 0.40210325075565 0.23476240816161 
C25   C     0.45482536001311 0.93445320452034 0.18359542200876 
C26   C     0.35571723510759 0.85521793296747 0.24105994738928 
C27   C     0.31711665055252 0.74546047870373 0.26678243399811 
C28   C     0.38205490601485 0.29679813649612 0.27191002056157 
C29   C     0.30130546455491 0.47958362441932 0.29840861563184 
C30   C     0.32346655428519 0.33380719671259 0.30233197893775 
H1    H     0.38471413390067 0.68554989639731 0.08014061032962 
H2    H     0.27441084638640 0.75732180218551 0.06912773781101 
H3    H     0.30018992583583 0.09523280054719 0.06524845239337 
H4    H     0.41299503817301 0.02417853771036 0.05136517591616 
H5    H     0.22090187232488 0.28978130867828 0.06797118244174 
H6    H     0.52180914287489 0.09209232994774 0.03874561984092 
H7    H     0.19015039806900 0.55996489277740 0.06695232963013 
H8    H     0.60734055449153 0.28417290524331 0.04143448573751 
H9    H     0.64172746880972 0.53665051703816 0.06047952729051 
H10   H     0.61825966243540 0.80071781532561 0.09523493762530 
H11   H     0.54691890201560 0.98476200803207 0.14332242664152 
H12   H     0.46059106831726 0.37173521814180 0.21196549326365 
H13   H     0.44284582525649 0.05102092773880 0.19471550931326 
H14   H     0.34344428122501 0.97360107801978 0.24738375530177 
H15   H     0.27320131575819 0.77483676858192 0.29295868667237 
H16   H     0.40177571011352 0.18488751574012 0.27848821671173 
H17   H     0.25707162115581 0.51162422573812 0.32345270098859 
H18   H     0.29629156213185 0.24875806666850 0.32936768907602 
