data_stdin
_audit_creation_method 'critic2'
_audit_creation_date 2023-8-11
_chemical_formula_sum 'C30 H18'
_cell_formula_units_Z 4
_cell_length_a        11.3822543753
_cell_length_b         9.9999367838
_cell_length_c        17.1403750243
_cell_angle_alpha        89.9983
_cell_angle_beta        92.0110
_cell_angle_gamma        90.0003
_cell_volume          1949.747140
_space_group_crystal_system monoclinic
_space_group_IT_number 14
_space_group_name_H-M_alt 'P2_1/c'
_space_group_name_Hall '-P 2ybc'
loop_
_symmetry_equiv_pos_site_id
_symmetry_equiv_pos_as_xyz
 1 'x,y,z'
 2 '-x,-y,-z'
 3 '-x,-1/2+y,-1/2-z'
 4 'x,-1/2-y,-1/2+z'
loop_
_atom_site_label
_atom_site_type_symbol
_atom_site_fract_x
_atom_site_fract_y
_atom_site_fract_z
C1    C     0.38009124236142 0.68893200447825 0.81644293854088 
C2    C     0.32556101198066 0.62435503984099 0.74877507402790 
C3    C     0.41609681710313 0.61879586092774 0.88502822223129 
C4    C     0.27292147777503 0.49302081667004 0.75037898891179 
C5    C     0.22531316102188 0.43073471555378 0.81872990603366 
C6    C     0.17714152552555 0.50277497125984 0.88337301930295 
C7    C     0.40787667331457 0.82820048406213 0.81246765441435 
C8    C     0.32842704327327 0.69208152152228 0.67593816665130 
C9    C     0.46665028993858 0.68455858370441 0.94875391500472 
C10   C     0.26806867262175 0.41847327258945 0.67952487655227 
C11   C     0.22456042205330 0.28807881599558 0.82142878147817 
C12   C     0.12999690486596 0.63744755274621 0.87817897725420 
C13   C     0.16988863996960 0.43514916520471 0.95598859674542 
C14   C     0.39651316006218 0.89682339604090 0.73957847006600 
C15   C     0.36307582715611 0.82930233904776 0.67314543709347 
C16   C     0.45369612975795 0.89440808634529 0.87981582673776 
C17   C     0.29886018119103 0.62185712579193 0.60557965006671 
C18   C     0.48175185669797 0.82435666512384 0.94735427465587 
C19   C     0.27817427035121 0.48713767982102 0.60726768594764 
C20   C     0.25402726505376 0.27712273640553 0.68230678151204 
C21   C     0.24156597704759 0.21316851816410 0.75208122915204 
C22   C     0.10734620446625 0.70842327892300 0.94859442244107 
C23   C     0.20516989916936 0.22166899256682 0.89336014538938 
C24   C     0.09593924529615 0.69964196158973 0.80658673260563 
C25   C     0.18577430995518 0.29397794738776 0.95946839324323 
C26   C     0.14321890252936 0.50776605940718 0.02488151055564 
C27   C     0.11902619330966 0.64136464311033 0.02198026855327 
C28   C     0.05198860754871 0.82848083309482 0.80391275983816 
C29   C     0.06566060831114 0.84181972913577 0.94434183480561 
C30   C     0.03960203873169 0.90195092022364 0.87327236202245 
H1    H     0.40597264970087 0.51085705393513 0.88683574011927 
H2    H     0.49576795124818 0.62805605994835 0.00020876251830 
H3    H     0.42150662959074 0.00186309139879 0.73718806371802 
H4    H     0.36074878749520 0.87931781347962 0.61663462690892 
H5    H     0.47149177114138 0.00117945078447 0.87592379331926 
H6    H     0.30101044938871 0.67515143755964 0.55030224381009 
H7    H     0.51964315171132 0.87547686259862 0.99833502511629 
H8    H     0.26845019300506 0.43073206471183 0.55316604330700 
H9    H     0.25933568209595 0.22058623588730 0.62832742005033 
H10   H     0.23830394621474 0.10445883453589 0.75522770265068 
H11   H     0.20812886492763 0.11271340812174 0.89468316362433 
H12   H     0.10199545233512 0.64384918052769 0.75253534093762 
H13   H     0.17377329424680 0.24421328207855 0.01503802700505 
H14   H     0.14064237168479 0.45374826162283 0.07999661505548 
H15   H     0.10045805501378 0.69650506147385 0.07493623391426 
H16   H     0.02454662118055 0.87227219853202 0.74801607017694 
H17   H     0.05178127082564 0.89469166604017 0.99884029242785 
H18   H     0.00549892000875 0.00366512051122 0.87068972731053 
