data_stdin
_audit_creation_method 'critic2'
_audit_creation_date 2023-8-11
_chemical_formula_sum 'C30 H18'
_cell_formula_units_Z 2
_cell_length_a        13.0826306056
_cell_length_b         9.5872635794
_cell_length_c         8.0865547564
_cell_angle_alpha        80.3027
_cell_angle_beta        82.2280
_cell_angle_gamma        96.5039
_cell_volume           980.934915
_space_group_crystal_system triclinic
_space_group_IT_number 2
_space_group_name_H-M_alt 'P-1'
_space_group_name_Hall '-P 1'
loop_
_symmetry_equiv_pos_site_id
_symmetry_equiv_pos_as_xyz
 1 'x,y,z'
 2 '-x,-y,-z'
loop_
_atom_site_label
_atom_site_type_symbol
_atom_site_fract_x
_atom_site_fract_y
_atom_site_fract_z
C1    C     0.70906042763437 0.74104218592918 0.90951433568343 
C2    C     0.61235900718084 0.70588816542977 0.02858882651187 
C3    C     0.78800558696451 0.65137245130318 0.90663864533381 
C4    C     0.59449371620063 0.59524179628013 0.17901936593054 
C5    C     0.67436330192865 0.54603872014244 0.27309526200273 
C6    C     0.77220012208265 0.63066470476096 0.27854941844247 
C7    C     0.72288732655697 0.86470416061903 0.77746364690115 
C8    C     0.52733110729214 0.77808336501008 0.98839096648842 
C9    C     0.87776679862441 0.68576009898300 0.78782203902492 
C10   C     0.48998988397771 0.52829102053740 0.23888467752435 
C11   C     0.65433854741108 0.40357525278933 0.36851273185858 
C12   C     0.78993800167571 0.78562746077355 0.24641530040780 
C13   C     0.85630741766419 0.55801995731595 0.32351090841247 
C14   C     0.63993082660875 0.94804470818345 0.76104704805099 
C15   C     0.54464943317269 0.90288116613138 0.85848322555487 
C16   C     0.81583555121300 0.89826998316573 0.65792102192621 
C17   C     0.42432128728761 0.72401607870319 0.07401479852071 
C18   C     0.89282614406124 0.81114314260490 0.66326419265128 
C19   C     0.40563125355484 0.59655291064904 0.18574877091804 
C20   C     0.47029128757509 0.39398542694854 0.35190286934010 
C21   C     0.55118600047216 0.32862305113257 0.40355634515428 
C22   C     0.89453843096842 0.85757204205412 0.21440565859929 
C23   C     0.73784756631696 0.33820371743208 0.42931878153342 
C24   C     0.70841251663205 0.87067205523619 0.25878320361536 
C25   C     0.83711985104639 0.40988250518659 0.39708428610878 
C26   C     0.95966077357246 0.63358645462879 0.29459653868571 
C27   C     0.97911744562781 0.77710210280758 0.23198135547170 
C28   C     0.72883058097560 0.01827516374236 0.22834533623801 
C29   C     0.91328046621373 0.00871770849941 0.17602469225966 
C30   C     0.83186092830216 0.08855643878986 0.18066754731962 
H1    H     0.77699974093646 0.55154643048734 0.99719398086381 
H2    H     0.93667629678549 0.61417451292758 0.79092559274439 
H3    H     0.65228591880806 0.04421526239100 0.66358669692985 
H4    H     0.47978672901297 0.96233654945330 0.83983548084326 
H5    H     0.82413150329584 0.99172801395821 0.55700844375698 
H6    H     0.36062653318803 0.78189169539111 0.04138384218797 
H7    H     0.96320534330095 0.83724101416365 0.56917720429236 
H8    H     0.32655679552997 0.54701167577074 0.24037790184875 
H9    H     0.39010819908964 0.34212717242599 0.38993487991077 
H10   H     0.53738307761996 0.22096515635230 0.47923649158022 
H11   H     0.72185278675066 0.22809762021026 0.49731726149187 
H12   H     0.62850231666453 0.81856324099637 0.29675737054809 
H13   H     0.90194786998814 0.35631179510350 0.43397463766745 
H14   H     0.02324288879343 0.57350899682535 0.32193076357746 
H15   H     0.05831285733439 0.83382344032378 0.20394805766703 
H16   H     0.66513068877892 0.08126608112020 0.24340946310729 
H17   H     0.99352197522262 0.06106439619165 0.14720123459069 
H18   H     0.84718106608115 0.20482740836482 0.15362042497059 
