data_stdin
_audit_creation_method 'critic2'
_audit_creation_date 2023-8-11
_chemical_formula_sum 'C30 H18'
_cell_formula_units_Z 8
_cell_length_a        29.9689618889
_cell_length_b         9.8614445713
_cell_length_c        14.3259868399
_cell_angle_alpha        90.0000
_cell_angle_beta        70.4694
_cell_angle_gamma        89.9990
_cell_volume          3990.259907
_space_group_crystal_system monoclinic
_space_group_IT_number 15
_space_group_name_H-M_alt 'C2/c'
_space_group_name_Hall '-C 2yc'
loop_
_symmetry_equiv_pos_site_id
_symmetry_equiv_pos_as_xyz
 1 'x,y,z'
 2 '-x,-y,-z'
 3 '-x,y,-1/2-z'
 4 'x,-y,-1/2+z'
 5 '-1/2+x,-1/2+y,z'
 6 '-1/2-x,-1/2-y,-z'
 7 '-1/2-x,-1/2+y,-1/2-z'
 8 '-1/2+x,-1/2-y,-1/2+z'
loop_
_atom_site_label
_atom_site_type_symbol
_atom_site_fract_x
_atom_site_fract_y
_atom_site_fract_z
C1    C     0.16035679397026 0.90502451123620 0.69992734802858 
C2    C     0.14919795811578 0.04030496125150 0.74139483098558 
C3    C     0.12609593877939 0.81531260034148 0.68634003910413 
C4    C     0.10193859283217 0.08876888229788 0.79532444346551 
C5    C     0.06196154049503 0.00377645313414 0.84735460255349 
C6    C     0.06525889894222 0.87155932975318 0.88790171255208 
C7    C     0.20878110543480 0.86181014122424 0.66298878543548 
C8    C     0.18729338963675 0.13382676213727 0.72330855286404 
C9    C     0.13801592849330 0.68628351001689 0.64830479330620 
C10   C     0.09373979837610 0.23163379611089 0.79652863366543 
C11   C     0.01564726125278 0.05447757960283 0.86111427353569 
C12   C     0.10351503624502 0.82983839431982 0.92209633544271 
C13   C     0.02695054403340 0.78024092087315 0.90156252052997 
C14   C     0.24562132660268 0.95578281700845 0.65853087683086 
C15   C     0.23516786543662 0.08818303672920 0.68448322845960 
C16   C     0.22002505203484 0.72814076510487 0.62638490872101 
C17   C     0.17811448918961 0.27514500764894 0.73986378245453 
C18   C     0.18518923068536 0.64026711401041 0.62067361239747 
C19   C     0.13274519257487 0.32324199695736 0.76868614658239 
C20   C     0.04659947161821 0.28227635216152 0.82575507900549 
C21   C     0.00884707519647 0.19543226713586 0.85031211757656 
C22   C     0.10699297410421 0.69047624777793 0.94674801944133 
C23   C     0.97646378985220 0.96370606322579 0.88529140575567 
C24   C     0.13510714299119 0.92293799432558 0.94256897293962 
C25   C     0.98293157170241 0.82832738662823 0.89675196425126 
C26   C     0.03212622868543 0.64142396198060 0.92397709935600 
C27   C     0.07170435993854 0.59645320338424 0.94153212452919 
C28   C     0.16967093077191 0.88048603301188 0.98020369040141 
C29   C     0.14361641427418 0.64898713266826 0.98217435945148 
C30   C     0.17470934080711 0.74190691350743 0.99830231146206 
H1    H     0.08967409421787 0.84867118628355 0.70525151302125 
H2    H     0.11053573356691 0.61990300384988 0.63982035372532 
H3    H     0.28222543215596 0.92135606044016 0.62971989321326 
H4    H     0.26334669586784 0.16176433021166 0.67582395683169 
H5    H     0.25703226983536 0.69692949373117 0.60080914211487 
H6    H     0.20812105483851 0.34429544915918 0.72304475858308 
H7    H     0.19432005665532 0.53770482457616 0.59266604873118 
H8    H     0.12571839557734 0.43188375388970 0.77290424615331 
H9    H     0.04148979279514 0.39138415628969 0.82354045744028 
H10   H     0.97294602559715 0.23267646012227 0.86532799729997 
H11   H     0.94180710913426 0.00435009037479 0.89152178362406 
H12   H     0.13114907026748 0.03062288788781 0.93159298951946 
H13   H     0.95373469840547 0.75693264760763 0.90963712145192 
H14   H     0.00325046618076 0.57205001854426 0.92798621517172 
H15   H     0.07573370102170 0.48979769576666 0.95712647596563 
H16   H     0.19244478493630 0.95502582269854 0.99791703651045 
H17   H     0.14601527724252 0.54193560687279 0.99877559298848 
H18   H     0.20220341203494 0.70917455632051 0.02724300073155 
