data_stdin
_audit_creation_method 'critic2'
_audit_creation_date 2023-8-11
_chemical_formula_sum 'C30 H18'
_cell_formula_units_Z 4
_cell_length_a         9.5422841271
_cell_length_b        14.8032938506
_cell_length_c        16.4170271816
_cell_angle_alpha        89.9993
_cell_angle_beta        58.0236
_cell_angle_gamma        89.9998
_cell_volume          1967.149743
_space_group_crystal_system monoclinic
_space_group_IT_number 14
_space_group_name_H-M_alt 'P2_1/c'
_space_group_name_Hall '-P 2ybc'
loop_
_symmetry_equiv_pos_site_id
_symmetry_equiv_pos_as_xyz
 1 'x,y,z'
 2 '-x,-y,-z'
 3 '-x,-1/2+y,-1/2-z'
 4 'x,-1/2-y,-1/2+z'
loop_
_atom_site_label
_atom_site_type_symbol
_atom_site_fract_x
_atom_site_fract_y
_atom_site_fract_z
C1    C     0.07960465123508 0.16329886261106 0.93139263463672 
C2    C     0.98247979656832 0.15643565592189 0.88730842671682 
C3    C     0.06829355581160 0.23701094604025 0.98958310512201 
C4    C     0.90112489569889 0.23180303168677 0.87317827366173 
C5    C     0.95101974487510 0.32557254563595 0.86515089374441 
C6    C     0.11696825708440 0.35661298007241 0.83170097693377 
C7    C     0.18124643375257 0.08884364521546 0.92393650206798 
C8    C     0.96154471462018 0.06912598235104 0.85906333923606 
C9    C     0.16088712162239 0.24013855013185 0.03183701694729 
C10   C     0.76183399371884 0.21264120164408 0.86551096740950 
C11   C     0.82695072798236 0.39281601914301 0.89048289997719 
C12   C     0.26645283676656 0.30595303044251 0.76784189349156 
C13   C     0.13600278016956 0.44527931319814 0.85789949921880 
C14   C     0.17337109708371 0.00622585542371 0.88204197824900 
C15   C     0.06233904962374 0.99553915028100 0.85443498409037 
C16   C     0.27925694943751 0.09491677690467 0.96492716381977 
C17   C     0.83712312582881 0.05429883421399 0.83746546344064 
C18   C     0.27115521395883 0.16969932877814 0.01747272133422 
C19   C     0.73317117893751 0.12270193217570 0.84685545295209 
C20   C     0.65136220604762 0.28325399194744 0.87710218844471 
C21   C     0.67671533141049 0.36933151521337 0.89694381725012 
C22   C     0.42151810849518 0.33723205527960 0.75133818308730 
C23   C     0.85458887111051 0.48319951345213 0.90836504823632 
C24   C     0.26992564113956 0.23059208009242 0.71359884783980 
C25   C     0.00079796997797 0.50681242003894 0.89906848752505 
C26   C     0.29246393400742 0.47444161898707 0.83990081950993 
C27   C     0.42888992812932 0.42066261956459 0.79253998281129 
C28   C     0.41533078499609 0.18597698376378 0.65071901015196 
C29   C     0.56825692939679 0.28864551089556 0.68871410467335 
C30   C     0.56590854925256 0.21424093531580 0.63883587399067 
H1    H     0.98252045605807 0.29147251371676 0.00278058385640 
H2    H     0.14700696203474 0.29711294370301 0.07750166033901 
H3    H     0.24869593214100 0.95004942530776 0.87990470760097 
H4    H     0.04634158425429 0.93025822214043 0.82975072281551 
H5    H     0.35630826685476 0.03733507346872 0.95760395539103 
H6    H     0.82198042263474 0.98651103776145 0.81756984742241 
H7    H     0.34511555246715 0.17346223510846 0.04997733774190 
H8    H     0.63013759293829 0.11043091124575 0.83735827622398 
H9    H     0.54293590323490 0.26641986261482 0.87432849048356 
H10   H     0.58596097160444 0.42225960370612 0.91352432560611 
H11   H     0.75544196317174 0.53238300172119 0.93180091229606 
H12   H     0.15655371711781 0.20881760095921 0.71932553042534 
H13   H     0.01973846956680 0.57436906821424 0.91759160832055 
H14   H     0.30091916468566 0.54133918466717 0.86444367304165 
H15   H     0.54704467548296 0.44342057030720 0.78022743451796 
H16   H     0.41375796217909 0.12959841620068 0.60863609023406 
H17   H     0.68464207625986 0.31224822741139 0.67854515284333 
H18   H     0.68027498434028 0.17974725914029 0.58789636369377 
