data_stdin
_audit_creation_method 'critic2'
_audit_creation_date 2023-8-11
_chemical_formula_sum 'C30 H18'
_cell_formula_units_Z 8
_cell_length_a        15.3736066533
_cell_length_b        16.9439450100
_cell_length_c        15.2977564617
_cell_angle_alpha        89.9999
_cell_angle_beta        78.6535
_cell_angle_gamma        90.0002
_cell_volume          3907.022542
_space_group_crystal_system monoclinic
_space_group_IT_number 15
_space_group_name_H-M_alt 'C2/c'
_space_group_name_Hall '-C 2yc'
loop_
_symmetry_equiv_pos_site_id
_symmetry_equiv_pos_as_xyz
 1 'x,y,z'
 2 '-1/2-x,-1/2-y,-z'
 3 '-x,y,-1/2-z'
 4 '-1/2+x,-1/2-y,-1/2+z'
 5 '-1/2+x,-1/2+y,z'
 6 '-x,-y,-z'
 7 '-1/2-x,-1/2+y,-1/2-z'
 8 'x,-y,-1/2+z'
loop_
_atom_site_label
_atom_site_type_symbol
_atom_site_fract_x
_atom_site_fract_y
_atom_site_fract_z
C1    C     0.20172896777407 0.99931939192203 0.36276818511210 
C2    C     0.22839000790045 0.92140308633859 0.38717689660927 
C3    C     0.26223782157429 0.05631526887924 0.31861180486006 
C4    C     0.31839922623113 0.89903832166027 0.39182046125728 
C5    C     0.38841731811485 0.95314787062485 0.40340742942681 
C6    C     0.37567618802571 0.02991751806397 0.44521923079014 
C7    C     0.10932421511030 0.01840084171320 0.37621604977215 
C8    C     0.16153937401521 0.86202302119987 0.40337635824765 
C9    C     0.23441839557074 0.12986296093464 0.29631376953937 
C10   C     0.34069890594570 0.81708463233542 0.38287754188488 
C11   C     0.47779315105585 0.92877998499100 0.37111045344391 
C12   C     0.30134224017370 0.05062964952185 0.51534186576424 
C13   C     0.44382654643116 0.08704907783823 0.42065264915418 
C14   C     0.04437618075993 0.95916680404662 0.40595054374982 
C15   C     0.06999516098535 0.88302209395986 0.41509648963880 
C16   C     0.08243070738629 0.09480988919097 0.35476177051927 
C17   C     0.18541247394999 0.78101816141781 0.40613424554161 
C18   C     0.14384781213352 0.15044704827586 0.31637749022775 
C19   C     0.27261288645353 0.75920238654661 0.39029926520047 
C20   C     0.43101599766769 0.79276808966641 0.36718737383498 
C21   C     0.49751639832579 0.84760315260216 0.35465667422579 
C22   C     0.28936742769373 0.13112220157616 0.54366661277258 
C23   C     0.54729676787695 0.98560570631282 0.35560944297064 
C24   C     0.24540494335078 0.99335232040994 0.56531917394266 
C25   C     0.52899049380118 0.06364201747430 0.37275553392439 
C26   C     0.42772893770195 0.16729945060035 0.44712488279881 
C27   C     0.35154947556855 0.18952458622885 0.50377654236014 
C28   C     0.17951155871044 0.01423677780820 0.63673740559855 
C29   C     0.21956872311364 0.15132683750651 0.61538904460897 
C30   C     0.16506933551388 0.09407222311179 0.66133271297388 
H1    H     0.33202557212679 0.04164131854003 0.29992373685948 
H2    H     0.28279562497195 0.17189761712164 0.26167769383269 
H3    H     0.97439979369845 0.97472292270863 0.41723968459664 
H4    H     0.02026419451415 0.83683859684125 0.43234203198336 
H5    H     0.01160742636928 0.10773693438861 0.36770921641730 
H6    H     0.13298763334369 0.73682997007832 0.41911200081639 
H7    H     0.12281660164572 0.20874192608816 0.29900141947686 
H8    H     0.29160431387372 0.69719474355160 0.38679999934063 
H9    H     0.44558889340942 0.72988692270494 0.36074088614825 
H10   H     0.56681702540235 0.83060956349848 0.33461559781913 
H11   H     0.61440814801822 0.96563720989156 0.32816777385174 
H12   H     0.25693970080492 0.93132945860234 0.54927289036779 
H13   H     0.58076616926216 0.10814188775205 0.35600217080186 
H14   H     0.47881352478324 0.21064198559522 0.42185218452667 
H15   H     0.34000058290368 0.25097252830106 0.52369129215418 
H16   H     0.13994502931572 0.96852930395898 0.67595495898713 
H17   H     0.21138436886132 0.21309774363546 0.63506816839720 
H18   H     0.11304975073543 0.10983143007663 0.71781715791971 
