data_stdin
_audit_creation_method 'critic2'
_audit_creation_date 2023-8-11
_chemical_formula_sum 'C30 H18'
_cell_formula_units_Z 8
_cell_length_a        14.4488675402
_cell_length_b        13.2118880100
_cell_length_c        20.5111239500
_cell_angle_alpha        90.0001
_cell_angle_beta        90.0004
_cell_angle_gamma        90.0000
_cell_volume          3915.508333
_space_group_crystal_system orthorhombic
_space_group_IT_number 61
_space_group_name_H-M_alt 'Pbca'
_space_group_name_Hall '-P 2ac 2ab'
loop_
_symmetry_equiv_pos_site_id
_symmetry_equiv_pos_as_xyz
 1 'x,y,z'
 2 '-x,-y,-z'
 3 '-1/2+x,-1/2-y,-z'
 4 '-1/2-x,-1/2+y,z'
 5 '-x,-1/2+y,-1/2-z'
 6 'x,-1/2-y,-1/2+z'
 7 '-1/2-x,-y,-1/2+z'
 8 '-1/2+x,y,-1/2-z'
loop_
_atom_site_label
_atom_site_type_symbol
_atom_site_fract_x
_atom_site_fract_y
_atom_site_fract_z
C1    C     0.56055578303180 0.83323621927181 0.98404408657350 
C2    C     0.48827372402469 0.87370184917747 0.94236791325831 
C3    C     0.65505579024292 0.83090603727092 0.96596755318323 
C4    C     0.49889450229113 0.89460533402530 0.87342734807847 
C5    C     0.56682937517392 0.84911282562208 0.83001793071590 
C6    C     0.60500466203188 0.74793569372536 0.83559743464582 
C7    C     0.53844743477889 0.80277749168343 0.04928765557090 
C8    C     0.40310278552532 0.90051797796762 0.97266729531946 
C9    C     0.72239416299755 0.79299720749640 0.00712090446203 
C10   C     0.43866018123214 0.96873032355778 0.84555871727501 
C11   C     0.59645197051309 0.90857576008861 0.77563038752957 
C12   C     0.55895796651149 0.66377006906765 0.86772445256270 
C13   C     0.69028670743069 0.72719350141662 0.80319922846341 
C14   C     0.44813228912899 0.82067511648163 0.07469119718034 
C15   C     0.38447274286576 0.87206186317338 0.03844469723071 
C16   C     0.60807454745037 0.76163132922150 0.08999429821947 
C17   C     0.33559160331033 0.95807378147649 0.93832509298687 
C18   C     0.69866214943745 0.75513881347438 0.06909716920064 
C19   C     0.35558689591303 0.99664162272284 0.87819867886209 
C20   C     0.46242088900210 0.01700520402419 0.78590788872928 
C21   C     0.54353020337863 0.99366873199255 0.75511499881608 
C22   C     0.60739238428020 0.56982333635524 0.87603874359465 
C23   C     0.67874761745352 0.88244724113286 0.74129233568266 
C24   C     0.46422996428834 0.66536422229295 0.88576226348119 
C25   C     0.72812259029069 0.79818497242356 0.75816625074293 
C26   C     0.73681354927843 0.63310726802409 0.81317269944419 
C27   C     0.69834719973124 0.55821975417002 0.85014821181983 
C28   C     0.42153607770025 0.58219519936644 0.91360122164711 
C29   C     0.56249049386954 0.48643024432720 0.90570394786147 
C30   C     0.47118542775543 0.49223333876109 0.92499008181072 
H1    H     0.67570762464265 0.86181163070688 0.91919772570258 
H2    H     0.79432392769381 0.79272886161054 0.99150836621942 
H3    H     0.43281304345031 0.79783842933146 0.12460138353126 
H4    H     0.31739280981727 0.89159426252349 0.05903682184701 
H5    H     0.58921386142974 0.73730714704457 0.13902040289579 
H6    H     0.27070866768792 0.97551576244765 0.96281859363076 
H7    H     0.75161029807275 0.72332017746436 0.10079041255843 
H8    H     0.30909656835565 0.04974103541938 0.85420852959612 
H9    H     0.41686165292809 0.07577028280555 0.76709720093491 
H10   H     0.56598246626560 0.03560632231562 0.71227102212552 
H11   H     0.70239892146766 0.93198209369930 0.70225287368240 
H12   H     0.42334968685212 0.73257958763502 0.87611952500632 
H13   H     0.79400173150849 0.78102272389427 0.73473402028695 
H14   H     0.80379193510929 0.62162024080333 0.78984097297840 
H15   H     0.73420753497045 0.48645258852049 0.85682363597738 
H16   H     0.34844518225814 0.58653864761881 0.92617941817451 
H17   H     0.60105766985727 0.41614261677566 0.91182069235714 
H18   H     0.43759374285523 0.42740570908740 0.94751554058258 
