data_stdin
_audit_creation_method 'critic2'
_audit_creation_date 2023-8-11
_chemical_formula_sum 'C30 H18'
_cell_formula_units_Z 4
_cell_length_a        12.0004321664
_cell_length_b        11.2834825300
_cell_length_c        15.4897180225
_cell_angle_alpha        90.0000
_cell_angle_beta        69.0567
_cell_angle_gamma        89.9999
_cell_volume          1958.844211
_space_group_crystal_system monoclinic
_space_group_IT_number 14
_space_group_name_H-M_alt 'P2_1/c'
_space_group_name_Hall '-P 2ybc'
loop_
_symmetry_equiv_pos_site_id
_symmetry_equiv_pos_as_xyz
 1 'x,y,z'
 2 '-x,-y,-z'
 3 '-x,-1/2+y,-1/2-z'
 4 'x,-1/2-y,-1/2+z'
loop_
_atom_site_label
_atom_site_type_symbol
_atom_site_fract_x
_atom_site_fract_y
_atom_site_fract_z
C1    C     0.85665643058728 0.22071224216025 0.05303894112926 
C2    C     0.82435470332024 0.12374886024294 0.00506023133732 
C3    C     0.78576858522991 0.25715990984122 0.14357638512945 
C4    C     0.70531698996987 0.07521557070463 0.03066965013537 
C5    C     0.59539677401140 0.13738296923811 0.08212842673304 
C6    C     0.57797204128443 0.26453469125683 0.08330706548286 
C7    C     0.96992951508697 0.27744752324699 0.01088781965026 
C8    C     0.91750080941664 0.07032446193898 0.93027354916695 
C9    C     0.82028792045807 0.35002310962449 0.18674583959630 
C10   C     0.69470223179324 0.95599184402055 0.00336890318474 
C11   C     0.49531340525266 0.06663874733763 0.13441732220820 
C12   C     0.64709382595208 0.34506661761890 0.01090738758026 
C13   C     0.48223051830731 0.31409153538904 0.15828715397848 
C14   C     0.05442266525997 0.23042647210025 0.92772880894570 
C15   C     0.03126708370587 0.12668493313889 0.89214272694589 
C16   C     0.00095166828237 0.37494940979736 0.05503333501378 
C17   C     0.89804537669817 0.95981857139207 0.89364791345179 
C18   C     0.92687491354040 0.41220742121792 0.14135880174244 
C19   C     0.79228242941910 0.90114418685085 0.93314411734265 
C20   C     0.58707041928434 0.89191525660687 0.04720438988946 
C21   C     0.49454132588740 0.94300836797222 0.11653535484948 
C22   C     0.63562640169015 0.47021697194193 0.02727428723903 
C23   C     0.39542074011037 0.11983712747293 0.20367050808972 
C24   C     0.71964157127262 0.30737342246752 0.92119550057635 
C25   C     0.39343158578345 0.23912602170436 0.21946286476933 
C26   C     0.47236947025272 0.43930559624263 0.17170296071017 
C27   C     0.54989030675803 0.51483658101851 0.11065704403940 
C28   C     0.78469978963944 0.38671383983460 0.85397503024138 
C29   C     0.70497997307060 0.54925092701334 0.95819133841115 
C30   C     0.77967468496464 0.50887462678809 0.87314737341949 
H1    H     0.70402673475729 0.20964131891593 0.18095052396745 
H2    H     0.76565715885755 0.37425565733862 0.25719362741843 
H3    H     0.14009999797475 0.27512401376509 0.89718391687009 
H4    H     0.09939093952686 0.08427406239967 0.83375072297080 
H5    H     0.08592483892900 0.41899536384807 0.02050110938257 
H6    H     0.97122407349459 0.91957686836800 0.83754329203874 
H7    H     0.95213382726215 0.48698682759399 0.17488450610272 
H8    H     0.78027990942959 0.81252296284971 0.91012075440527 
H9    H     0.58096401485438 0.80070066834669 0.02643670112058 
H10   H     0.41657572502649 0.89126067891069 0.15614343048848 
H11   H     0.32304266164763 0.06293397796863 0.24557219528361 
H12   H     0.72370776450968 0.21378746506960 0.90432972263170 
H13   H     0.32145239231824 0.27997971350146 0.27616668766716 
H14   H     0.40104305705755 0.47316262786984 0.23228271223962 
H15   H     0.54314965247214 0.61013056964927 0.12241277518014 
H16   H     0.83870926266584 0.35357810889468 0.78583214297789 
H17   H     0.69592457693139 0.64378128031497 0.97297772279366 
H18   H     0.83225913776313 0.57155353804831 0.82104799710902 
