data_stdin
_audit_creation_method 'critic2'
_audit_creation_date 2023-8-11
_chemical_formula_sum 'C30 H18'
_cell_formula_units_Z 8
_cell_length_a        22.1759691963
_cell_length_b         8.8709326415
_cell_length_c        20.7527266718
_cell_angle_alpha        89.9993
_cell_angle_beta        72.1642
_cell_angle_gamma        89.9996
_cell_volume          3886.294353
_space_group_crystal_system monoclinic
_space_group_IT_number 15
_space_group_name_H-M_alt 'C2/c'
_space_group_name_Hall '-C 2yc'
loop_
_symmetry_equiv_pos_site_id
_symmetry_equiv_pos_as_xyz
 1 'x,y,z'
 2 '-x,-y,-z'
 3 '-x,y,-1/2-z'
 4 'x,-y,-1/2+z'
 5 '-1/2+x,-1/2+y,z'
 6 '-1/2-x,-1/2-y,-z'
 7 '-1/2-x,-1/2+y,-1/2-z'
 8 '-1/2+x,-1/2-y,-1/2+z'
loop_
_atom_site_label
_atom_site_type_symbol
_atom_site_fract_x
_atom_site_fract_y
_atom_site_fract_z
C1    C     0.21024274532135 0.65754590907529 0.91575249968501 
C2    C     0.17209520487700 0.60618718190861 0.98205021741854 
C3    C     0.22364105524284 0.81138378619300 0.89948187776678 
C4    C     0.12884749402027 0.70083671977256 0.03198110820800 
C5    C     0.10049102824919 0.83820604213953 0.01687520834683 
C6    C     0.08997562411403 0.87176949532888 0.95307225804740 
C7    C     0.23936268070571 0.54851744484685 0.86495480877393 
C8    C     0.17917465140655 0.45372141544863 0.99953639655458 
C9    C     0.25749973813984 0.85612485946689 0.83470501062002 
C10   C     0.11332354200902 0.65694589553997 0.10128566003807 
C11   C     0.08133335756439 0.94892081765363 0.06899850590541 
C12   C     0.07911183609378 0.75909530245202 0.90726439614673 
C13   C     0.08530365140343 0.02570068454688 0.93623835592162 
C14   C     0.23717525246908 0.39258185681834 0.88260985243390 
C15   C     0.21087912345367 0.34819396029996 0.94828208445921 
C16   C     0.27287831404122 0.59700776638707 0.79866636971440 
C17   C     0.15508611539069 0.40639311539281 0.06826923240333 
C18   C     0.28089926766050 0.74856720063574 0.78315219761386 
C19   C     0.12687115302354 0.50783276937049 0.11799062378606 
C20   C     0.08519870769398 0.76318725728144 0.15329021939948 
C21   C     0.07404582527156 0.90789771647884 0.13726505819523 
C22   C     0.07949478036474 0.80354422244732 0.84084116169455 
C23   C     0.06948236106660 0.09935278783580 0.05250605380988 
C24   C     0.06015055809431 0.60963873841244 0.92789109517698 
C25   C     0.07666809398598 0.13879502939664 0.98688492232839 
C26   C     0.08736518369261 0.06603450242717 0.86900855986374 
C27   C     0.08770629031891 0.95858732681238 0.82183005271693 
C28   C     0.04454632040596 0.50832674248140 0.88492888049289 
C29   C     0.06623472954088 0.69570988976311 0.79667666901342 
C30   C     0.04892130122720 0.55020269978512 0.81819671237981 
H1    H     0.20825269228001 0.89579073064993 0.93898545737144 
H2    H     0.26701921549595 0.97530735452101 0.82382746321401 
H3    H     0.25947463560626 0.31082906505504 0.84330342251975 
H4    H     0.21239604610071 0.23063073552820 0.96278960317089 
H5    H     0.29355652843897 0.51224058035285 0.76031385746181 
H6    H     0.16259630366667 0.28994821085142 0.08048311601062 
H7    H     0.30711909502085 0.78493927413113 0.73211103946331 
H8    H     0.11346413895092 0.47574589353943 0.17113394715422 
H9    H     0.07615558733644 0.72906993751822 0.20583608886768 
H10   H     0.05690231191473 0.99313287653061 0.17639786785078 
H11   H     0.05604818744839 0.18322541255329 0.09264503112882 
H12   H     0.05543717911943 0.57547137801301 0.97946199223619 
H13   H     0.07228624203247 0.25587800769127 0.97336396046433 
H14   H     0.08826298555014 0.18533980099515 0.85632895702151 
H15   H     0.09019073547794 0.99045165969945 0.77040232532900 
H16   H     0.02710632468384 0.39662614532978 0.90321063780595 
H17   H     0.06726264746519 0.73174206806873 0.74608923425031 
H18   H     0.03662289333292 0.46940346986897 0.78476132651770 
