data_stdin
_audit_creation_method 'critic2'
_audit_creation_date 2023-8-11
_chemical_formula_sum 'C30 H18'
_cell_formula_units_Z 8
_cell_length_a        15.3761844768
_cell_length_b        16.9386189302
_cell_length_c        15.2980987343
_cell_angle_alpha        89.9998
_cell_angle_beta       101.4003
_cell_angle_gamma        89.9994
_cell_volume          3905.797905
_space_group_crystal_system monoclinic
_space_group_IT_number 15
_space_group_name_H-M_alt 'C2/c'
_space_group_name_Hall '-C 2yc'
loop_
_symmetry_equiv_pos_site_id
_symmetry_equiv_pos_as_xyz
 1 'x,y,z'
 2 '-x,-y,-z'
 3 '-x,y,-1/2-z'
 4 '-1/2+x,-1/2-y,-1/2+z'
 5 '-1/2+x,-1/2+y,z'
 6 '-1/2-x,-1/2-y,-z'
 7 '-1/2-x,-1/2+y,-1/2-z'
 8 'x,-y,-1/2+z'
loop_
_atom_site_label
_atom_site_type_symbol
_atom_site_fract_x
_atom_site_fract_y
_atom_site_fract_z
C1    C     0.19867657101856 0.94950967166256 0.01521070873242 
C2    C     0.12430239202334 0.97031654690822 0.94509580107334 
C3    C     0.25471294133187 0.00673629157494 0.06524521979551 
C4    C     0.11157256256329 0.04714709192019 0.90333593774835 
C5    C     0.18158612612663 0.10126002919673 0.89175004950922 
C6    C     0.27158077802444 0.07888508608856 0.88710939086276 
C7    C     0.21059040691755 0.86896957374590 0.04349450025031 
C8    C     0.05608008398547 0.91321964830663 0.92050163951011 
C9    C     0.32059643318505 0.98576853072466 0.13670195334428 
C10   C     0.02218509546107 0.07157197719647 0.87108943056392 
C11   C     0.15930629224297 0.18324968132875 0.88280588566535 
C12   C     0.29820703980536 0.00093980777994 0.86271813227451 
C13   C     0.33844729448105 0.13827821227107 0.90332677947712 
C14   C     0.14829112438518 0.81061423182299 0.00359708139493 
C15   C     0.07209413769327 0.83292882700379 0.94695920717727 
C16   C     0.28041018427855 0.84867605171100 0.11522481067271 
C17   C     0.97089166443306 0.93669904379407 0.87264014015839 
C18   C     0.33496955043740 0.90589076513592 0.16125702321531 
C19   C     0.95262892721980 0.01477375937807 0.85558005140292 
C20   C     0.00248234607026 0.15277664336525 0.85464017522855 
C21   C     0.06900445315412 0.20760618452996 0.86712439943015 
C22   C     0.39060777405846 0.98183151891654 0.87621453899925 
C23   C     0.22740183709532 0.24114213538586 0.89025222553663 
C24   C     0.23765873357158 0.94391388356378 0.81859079297228 
C25   C     0.31459688553169 0.21931405736451 0.90610724997522 
C26   C     0.42998507339786 0.11726250452151 0.91503825064895 
C27   C     0.45558112767236 0.04108729389336 0.90591738819276 
C28   C     0.26543064069359 0.87029332160679 0.79644062089157 
C29   C     0.41745871824170 0.90535776320288 0.85487200743538 
C30   C     0.35600081196417 0.84968123601606 0.81657782603462 
H1    H     0.24325955423756 0.06879114242621 0.04921697615570 
H2    H     0.36020498080233 0.03144640180903 0.17599353984743 
H3    H     0.15976983430162 0.74913875836590 0.02352320798881 
H4    H     0.02090904004510 0.78963383364091 0.92171014349913 
H5    H     0.28854810369761 0.78686782126505 0.13484257869149 
H6    H     0.91907629707260 0.89221891338998 0.85586351487989 
H7    H     0.38697735908269 0.89008842130367 0.21778182071447 
H8    H     0.88551296493842 0.03480409277467 0.82818666332996 
H9    H     0.93317954996571 0.16979397696523 0.83460657621424 
H10   H     0.05445796894568 0.27051024213909 0.86064085777853 
H11   H     0.20840719627454 0.30316933530327 0.88676495493597 
H12   H     0.16787646390979 0.95861644237570 0.79983439257460 
H13   H     0.36703838714354 0.26350335436632 0.91913152314851 
H14   H     0.47971781117090 0.16346909935672 0.93226903949812 
H15   H     0.52555372423617 0.02550943437760 0.91720375983644 
H16   H     0.21703005054505 0.82821083158712 0.76186749502455 
H17   H     0.48827856501243 0.89241523346412 0.86786323328781 
H18   H     0.37696750612107 0.79132305645871 0.79929624897499 
