data_stdin
_audit_creation_method 'critic2'
_audit_creation_date 2023-8-11
_chemical_formula_sum 'C30 H18'
_cell_formula_units_Z 4
_cell_length_a        12.1271917661
_cell_length_b        16.7167295201
_cell_length_c         9.7373907954
_cell_angle_alpha        90.0011
_cell_angle_beta        87.1138
_cell_angle_gamma        90.0002
_cell_volume          1971.527897
_space_group_crystal_system monoclinic
_space_group_IT_number 14
_space_group_name_H-M_alt 'P2_1/c'
_space_group_name_Hall '-P 2ybc'
loop_
_symmetry_equiv_pos_site_id
_symmetry_equiv_pos_as_xyz
 1 'x,y,z'
 2 '-x,-y,-z'
 3 '-1/2-x,-1/2+y,-1/2-z'
 4 '-1/2+x,-1/2-y,-1/2+z'
loop_
_atom_site_label
_atom_site_type_symbol
_atom_site_fract_x
_atom_site_fract_y
_atom_site_fract_z
C1    C     0.68184835895226 0.24732216484687 0.00126037436110 
C2    C     0.63960293682786 0.17087167537303 0.05066915896447 
C3    C     0.70725012761576 0.31104102467455 0.09001532906173 
C4    C     0.58977106731142 0.15725837732457 0.18678609980399 
C5    C     0.53788904734372 0.21824418904441 0.27445149427538 
C6    C     0.48943172403966 0.29151038362626 0.22652220688641 
C7    C     0.70671888647627 0.25813021306208 0.85733476928608 
C8    C     0.65178725069508 0.10434435616094 0.95999062081362 
C9    C     0.74799106348640 0.38298394619275 0.03949436274536 
C10   C     0.59256502186357 0.07760066370261 0.23954394552811 
C11   C     0.53396396385497 0.20466981852172 0.41928819149213 
C12   C     0.44657813177908 0.30185141078282 0.09135996102885 
C13   C     0.47772346549344 0.35666234183883 0.32009798397619 
C14   C     0.69870017263188 0.19198498654010 0.76594533403090 
C15   C     0.67807243853567 0.11717248398324 0.81718437822595 
C16   C     0.74557530746357 0.33313965672183 0.80762260229713 
C17   C     0.63829485745823 0.02505013910791 0.01164310061896 
C18   C     0.76567670596510 0.39491068756106 0.89689515426950 
C19   C     0.61691820302051 0.01222829665490 0.14912294771866 
C20   C     0.57215879929548 0.06384135710196 0.38275759681508 
C21   C     0.55211604878481 0.12642267428773 0.47090341619436 
C22   C     0.42011127526634 0.38054911247763 0.04543954890890 
C23   C     0.51032920221801 0.26900392738127 0.51196885180755 
C24   C     0.42021368505391 0.23684430943615 0.00562588993526 
C25   C     0.49083622616246 0.34408566705381 0.46302521071991 
C26   C     0.45071218468596 0.43435480356537 0.27100369191919 
C27   C     0.42872668959982 0.44686221896662 0.13654667419480 
C28   C     0.37723535131490 0.24881951476176 0.87845922979963 
C29   C     0.37859237132022 0.39133529919814 0.91324338965236 
C30   C     0.35819061171776 0.32675626771475 0.82991241669479 
H1    H     0.69570208136638 0.30299513505038 0.20033072168666 
H2    H     0.76641165619787 0.43065340554674 0.11094446823839 
H3    H     0.71663193105252 0.20126645079350 0.65646894376723 
H4    H     0.68192786119879 0.06536539132145 0.74936572230704 
H5    H     0.76208919395102 0.33993590683946 0.69723856701888 
H6    H     0.64904299231836 0.97514602847179 0.94024276502542 
H7    H     0.79781697273730 0.45176775381122 0.85799600225849 
H8    H     0.61359034443617 0.95173384943017 0.19086391425157 
H9    H     0.57738400982847 0.00292395090594 0.42128275742830 
H10   H     0.54502775856151 0.11724777826775 0.58172479962476 
H11   H     0.51096960134250 0.25769576325971 0.62205409186991 
H12   H     0.43230275419806 0.17614288151353 0.04139751167310 
H13   H     0.47852617169513 0.39438589113293 0.53335465113805 
H14   H     0.44760375651385 0.48390357207606 0.34391329481846 
H15   H     0.41089880113101 0.50667324406113 0.09944888369126 
H16   H     0.35723228881335 0.19747587942511 0.81557173845947 
H17   H     0.36075056791680 0.45192380588990 0.87972441571043 
H18   H     0.32491009307994 0.33571682271904 0.72932961235055 
