data_stdin
_audit_creation_method 'critic2'
_audit_creation_date 2023-8-11
_chemical_formula_sum 'C30 H18'
_cell_formula_units_Z 2
_cell_length_a         9.2359816618
_cell_length_b        12.7571255500
_cell_length_c         9.6348195021
_cell_angle_alpha        90.0000
_cell_angle_beta        60.7851
_cell_angle_gamma        90.0000
_cell_volume           990.813661
_space_group_crystal_system monoclinic
_space_group_IT_number 4
_space_group_name_H-M_alt 'P2_1'
_space_group_name_Hall 'P 2yb'
loop_
_symmetry_equiv_pos_site_id
_symmetry_equiv_pos_as_xyz
 1 'x,y,z'
 2 '-x,-1/2+y,-z'
loop_
_atom_site_label
_atom_site_type_symbol
_atom_site_fract_x
_atom_site_fract_y
_atom_site_fract_z
C1    C     0.65469122364261 0.99932677716187 0.96577261223459 
C2    C     0.63180351838718 0.96088892002340 0.11686187552945 
C3    C     0.52129495208615 0.01797889293444 0.93597706072359 
C4    C     0.48184307345370 0.91144221797334 0.23723569556730 
C5    C     0.36031078739841 0.85825782680606 0.20824657679532 
C6    C     0.39405875134396 0.80767509361119 0.06081970381276 
C7    C     0.81708291328352 0.02925165139596 0.84486724442846 
C8    C     0.76351465544654 0.97701758141706 0.15104407279204 
C9    C     0.54742784541409 0.05747833659373 0.79203957751155 
C10   C     0.45050608697619 0.91490990056413 0.39780616328289 
C11   C     0.19436165148774 0.85328008197231 0.33732558358807 
C12   C     0.55397525675659 0.76535009579279 0.94543656458488 
C13   C     0.25840360841874 0.79128171749921 0.03234663542355 
C14   C     0.95192411324211 0.02791668282829 0.87762275091090 
C15   C     0.92418637387225 0.00712923511172 0.02761924597322 
C16   C     0.84102235694711 0.06737601402359 0.69729080560289 
C17   C     0.73554196209539 0.96455750116903 0.30907470912103 
C18   C     0.70874062244021 0.08114754530838 0.67017114489531 
C19   C     0.58091425428416 0.94059931362499 0.43044745994875 
C20   C     0.28867922647252 0.89352759351258 0.52556652232944 
C21   C     0.16118067403068 0.87220147381533 0.49583407323501 
C22   C     0.57667661369574 0.72677102262345 0.79646371396526 
C23   C     0.06180775387184 0.82710833538974 0.30815611648420 
C24   C     0.68544666098510 0.74892600864181 0.97910851850250 
C25   C     0.09250354089446 0.80501894869037 0.15731587417141 
C26   C     0.28701551869982 0.75635048331585 0.88028021257262 
C27   C     0.44173520627731 0.72851683217717 0.76389485768667 
C28   C     0.83289990814919 0.70262310846664 0.87046261928956 
C29   C     0.72938960363501 0.68007031891292 0.68650398606005 
C30   C     0.85656955061599 0.66862275641898 0.72173866446327 
H1    H     0.39507174121470 0.00557949938235 0.03040272701253 
H2    H     0.44127104836667 0.07361198201625 0.77513003412263 
H3    H     0.07506939055501 0.04932907221931 0.78295549112713 
H4    H     0.02452789152366 0.01196226603916 0.05617283298287 
H5    H     0.96606069469807 0.08941165210280 0.60779252229293 
H6    H     0.83821772793767 0.97862050543466 0.33201364849131 
H7    H     0.72748478628948 0.11392123233683 0.55822006693820 
H8    H     0.55620955561939 0.93775806402285 0.55308666119190 
H9    H     0.26784577916988 0.89848154822663 0.64685221432997 
H10   H     0.03425568620103 0.86432006359265 0.59255060128871 
H11   H     0.93594193182353 0.82694228947410 0.40825421854845 
H12   H     0.66816085649170 0.76975123609928 0.09532293215886 
H13   H     0.99104445331780 0.79098791633024 0.13245354353425 
H14   H     0.18093361967873 0.75046768155599 0.86033280976709 
H15   H     0.46218351282889 0.70113336642529 0.64853754508812 
H16   H     0.92981603214396 0.69004976609051 0.90203649571875 
H17   H     0.74206829938780 0.64998172732473 0.57516516206447 
H18   H     0.97261048806579 0.63143086030265 0.63744825917464 
