data_stdin
_audit_creation_method 'critic2'
_audit_creation_date 2023-8-11
_chemical_formula_sum 'C30 H18'
_cell_formula_units_Z 4
_cell_length_a         9.2516501186
_cell_length_b        12.6799729100
_cell_length_c        18.6023392815
_cell_angle_alpha        90.0000
_cell_angle_beta       114.3143
_cell_angle_gamma        90.0000
_cell_volume          1988.688732
_space_group_crystal_system monoclinic
_space_group_IT_number 14
_space_group_name_H-M_alt 'P2_1/c'
_space_group_name_Hall '-P 2ybc'
loop_
_symmetry_equiv_pos_site_id
_symmetry_equiv_pos_as_xyz
 1 'x,y,z'
 2 '-x,-y,-z'
 3 '-x,-1/2+y,-1/2-z'
 4 'x,-1/2-y,-1/2+z'
loop_
_atom_site_label
_atom_site_type_symbol
_atom_site_fract_x
_atom_site_fract_y
_atom_site_fract_z
C1    C     0.33459118417585 0.15404917093978 0.71848207378098 
C2    C     0.34022313451915 0.19008729525396 0.79364884665946 
C3    C     0.47174704997016 0.13833747010043 0.70391325344398 
C4    C     0.47801469534251 0.23674216833701 0.85535308924519 
C5    C     0.60351050705626 0.29152563581393 0.84319018800476 
C6    C     0.58433161885172 0.34939796349551 0.77282979085303 
C7    C     0.18561527573456 0.12269922665704 0.65787351540851 
C8    C     0.20437936160607 0.17250000329250 0.80946951374150 
C9    C     0.46183924304883 0.10172413495817 0.63200987939812 
C10   C     0.49347173034373 0.22737487039265 0.93470961365018 
C11   C     0.75757740546728 0.28887249474670 0.90637067319389 
C12   C     0.43608786576047 0.39540431866440 0.71824880818909 
C13   C     0.72191023582123 0.36762932025373 0.75851909218884 
C14   C     0.04667879652420 0.12218536206874 0.67323329401035 
C15   C     0.05706963710512 0.14285658146048 0.74721974897698 
C16   C     0.17852237078040 0.08630612699213 0.58459357326107 
C17   C     0.21580892022159 0.18088026653646 0.88797579570235 
C18   C     0.31378821491409 0.07721012246538 0.57092040946678 
C19   C     0.35851455877003 0.20087551434903 0.94948653038226 
C20   C     0.64468645383305 0.24146696137528 0.99853444667789 
C21   C     0.77548944615150 0.26120000773859 0.98378110838527 
C22   C     0.42648174663511 0.43932924696590 0.64547424641742 
C23   C     0.89257513635111 0.31544129104355 0.89186919753657 
C24   C     0.30234592664381 0.40872523826898 0.73606296722575 
C25   C     0.87538358002343 0.34639136767654 0.81837453481172 
C26   C     0.70747011110522 0.41076788368414 0.68507671710403 
C27   C     0.56423218538839 0.44235105126611 0.62933850121620 
C28   C     0.16378524206498 0.45431696249499 0.68300578187907 
C29   C     0.28287907742136 0.48516388532452 0.59178159832238 
C30   C     0.15209218796806 0.49139122922010 0.60942504697825 
H1    H     0.58800059206717 0.15150212381514 0.75103496394152 
H2    H     0.57017255066903 0.08933834473793 0.62342016914343 
H3    H     0.93383134863488 0.09985971579367 0.62591428895817 
H4    H     0.95297998211641 0.13711820612963 0.76038241684249 
H5    H     0.06357140538006 0.06281722528768 0.53973839918689 
H6    H     0.11024161595656 0.16536572313333 0.89831682540559 
H7    H     0.30696513088964 0.04821870269490 0.51448663712225 
H8    H     0.37059904794915 0.19913807920899 0.01023125291206 
H9    H     0.65490994138127 0.22972222227951 0.05844713442133 
H10   H     0.89415118025875 0.26034957257308 0.03126099624310 
H11   H     0.00962010851913 0.30877255244124 0.94012535849822 
H12   H     0.30970500112689 0.38523683789903 0.79352306849193 
H13   H     0.97878447807137 0.36122872859288 0.80594029276184 
H14   H     0.81459216277464 0.41937079572113 0.67485094137740 
H15   H     0.55489600315599 0.47602179292226 0.57372848546828 
H16   H     0.06418793957363 0.46357937705099 0.69929072401928 
H17   H     0.27943856771142 0.51861740385831 0.53713859013703 
H18   H     0.04286302957957 0.52777937823766 0.56805844283903 
