data_stdin
_audit_creation_method 'critic2'
_audit_creation_date 2023-8-11
_chemical_formula_sum 'C30 H18'
_cell_formula_units_Z 4
_cell_length_a         8.6533923940
_cell_length_b        22.0524722502
_cell_length_c        11.3390469377
_cell_angle_alpha        90.0005
_cell_angle_beta        64.3844
_cell_angle_gamma        89.9972
_cell_volume          1951.144694
_space_group_crystal_system monoclinic
_space_group_IT_number 14
_space_group_name_H-M_alt 'P2_1/c'
_space_group_name_Hall '-P 2ybc'
loop_
_symmetry_equiv_pos_site_id
_symmetry_equiv_pos_as_xyz
 1 'x,y,z'
 2 '-x,-y,-z'
 3 '-x,-1/2+y,-1/2-z'
 4 'x,-1/2-y,-1/2+z'
loop_
_atom_site_label
_atom_site_type_symbol
_atom_site_fract_x
_atom_site_fract_y
_atom_site_fract_z
C1    C     0.35087253955314 0.62429156379925 0.08881027950474 
C2    C     0.28134608176659 0.56544651436082 0.08057328353299 
C3    C     0.43671710325100 0.63574506008120 0.16825309364950 
C4    C     0.25258965623590 0.51659184263733 0.17282630143305 
C5    C     0.22663949840998 0.52362596584222 0.30736466764455 
C6    C     0.15523628645740 0.57659509271913 0.38788868738887 
C7    C     0.34361741224531 0.67273604063153 0.00728045977844 
C8    C     0.24358227042190 0.55472013414927 0.97210502300587 
C9    C     0.49923343089659 0.69268844114637 0.17520787585399 
C10   C     0.24945620715937 0.45628192517118 0.12814212175499 
C11   C     0.27438452291299 0.47372243957079 0.36484695218069 
C12   C     0.04746704213741 0.62099776656477 0.36509452048928 
C13   C     0.18916188504526 0.58527526852467 0.49886240910840 
C14   C     0.27718029205802 0.66186239328488 0.91382471187939 
C15   C     0.23590780566592 0.60424876351731 0.89376664744107 
C16   C     0.40816319488993 0.73064191350546 0.01649847370402 
C17   C     0.21165655999920 0.49468365481855 0.94200334989127 
C18   C     0.48205806112761 0.74110123417246 0.10082102286171 
C19   C     0.22572873733957 0.44666174605082 0.01295113869423 
C20   C     0.27126677796489 0.40596201799068 0.19807118666713 
C21   C     0.29830540354855 0.41516070877612 0.30687832911597 
C22   C     0.01438706707219 0.67785540717605 0.43257219540028 
C23   C     0.29679197179170 0.48262416163718 0.48075781721629 
C24   C     0.96311056150874 0.60980997482557 0.28460722089619 
C25   C     0.26583530734558 0.53797879186998 0.54088796933581 
C26   C     0.14726663770363 0.64150897595562 0.56794408442234 
C27   C     0.07069099085872 0.68742915126984 0.53210771726505 
C28   C     0.86623038415442 0.65393318954058 0.26129225955553 
C29   C     0.91825905317891 0.72295620180305 0.40478054346797 
C30   C     0.84724777655059 0.71174868103058 0.31879538190441 
H1    H     0.45683945476475 0.59876471212216 0.22313991737927 
H2    H     0.56350771639281 0.69985025868676 0.23802620387653 
H3    H     0.26725918754709 0.69969748730732 0.85559972761654 
H4    H     0.19274997384972 0.59476518133127 0.81854184597120 
H5    H     0.39877255333394 0.76694606347702 0.95496415074840 
H6    H     0.18286927507638 0.48778093218627 0.85848204039232 
H7    H     0.53133352598769 0.78585975943786 0.10668839221798 
H8    H     0.21496625944346 0.40018906889379 0.98507671119181 
H9    H     0.27462449650758 0.36059972124450 0.15909141638865 
H10   H     0.32876128997679 0.37756915941562 0.35545061857185 
H11   H     0.34193586025803 0.44473296404111 0.51900489264750 
H12   H     0.97245815437068 0.56517989567942 0.24194923941445 
H13   H     0.29311054301932 0.54586178134367 0.62483775236365 
H14   H     0.18117634583595 0.64772448320060 0.64917030115265 
H15   H     0.04558377752037 0.73091442914979 0.58251347470836 
H16   H     0.80329804997851 0.64355689891335 0.19877112666171 
H17   H     0.89778272956600 0.76634464081492 0.45542251898602 
H18   H     0.77237057034076 0.74667846484565 0.29930727571630 
