data_stdin
_audit_creation_method 'critic2'
_audit_creation_date 2023-8-11
_chemical_formula_sum 'C30 H18'
_cell_formula_units_Z 4
_cell_length_a         9.1564986344
_cell_length_b        23.9294384702
_cell_length_c        10.1502408277
_cell_angle_alpha        90.0019
_cell_angle_beta        61.2493
_cell_angle_gamma        89.9984
_cell_volume          1949.842163
_space_group_crystal_system monoclinic
_space_group_IT_number 14
_space_group_name_H-M_alt 'P2_1/c'
_space_group_name_Hall '-P 2ybc'
loop_
_symmetry_equiv_pos_site_id
_symmetry_equiv_pos_as_xyz
 1 'x,y,z'
 2 '-x,-y,-z'
 3 '-x,-1/2+y,-1/2-z'
 4 'x,-1/2-y,-1/2+z'
loop_
_atom_site_label
_atom_site_type_symbol
_atom_site_fract_x
_atom_site_fract_y
_atom_site_fract_z
C1    C     0.97628934571223 0.81492040718732 0.08850558257510 
C2    C     0.10227602253387 0.83432632579934 0.94207771341969 
C3    C     0.80801640734587 0.80592717545155 0.12540189480948 
C4    C     0.06762701863848 0.86010593930469 0.83072899656918 
C5    C     0.91500642853823 0.88904369552906 0.86115163318508 
C6    C     0.80014812815901 0.91453176503527 0.00299385261440 
C7    C     0.02375752097882 0.80024032010662 0.19926339919081 
C8    C     0.27174430123309 0.82503119715969 0.90372735290944 
C9    C     0.69098748380749 0.78743431607181 0.26594636455103 
C10   C     0.19435338329996 0.85650869595076 0.67733705768504 
C11   C     0.87496353940622 0.89260991984760 0.74155520205372 
C12   C     0.84382358644717 0.93301430424891 0.11567430611253 
C13   C     0.63314957878914 0.92368831268476 0.03352338548666 
C14   C     0.19535434342441 0.79961161370982 0.16111917609375 
C15   C     0.31493406452945 0.80904739652939 0.01631301810564 
C16   C     0.90078691716061 0.78345877938919 0.34422631027238 
C17   C     0.39999567928244 0.83093344190021 0.75208662400972 
C18   C     0.73657225359571 0.77745031120289 0.37803673711811 
C19   C     0.36060036613191 0.84264729122183 0.64114212533148 
C20   C     0.15523974126513 0.86607320199408 0.55940199811398 
C21   C     0.99656450383838 0.87952744538218 0.59142280941704 
C22   C     0.71397105063891 0.94433181651663 0.26470458462608 
C23   C     0.71309759048168 0.90980777906129 0.77132922578213 
C24   C     0.00944999851257 0.94502278687738 0.08249348633187 
C25   C     0.59225162793559 0.92119271361918 0.91493485625444 
C26   C     0.50628932918694 0.93550612495726 0.18339706606128 
C27   C     0.54410586487624 0.94205089952675 0.29721704625841 
C28   C     0.04594894001602 0.96396633910718 0.19199592372032 
C29   C     0.75510123845436 0.96124194561248 0.37645116959237 
C30   C     0.91849838962706 0.97093435134758 0.34120408920715 
H1    H     0.77062803301302 0.81285579076674 0.04038121861743 
H2    H     0.56292777615057 0.78061456210236 0.28972455356267 
H3    H     0.22851462330223 0.78814390829916 0.24727309562407 
H4    H     0.44663773418080 0.80526421452075 0.98334146129271 
H5    H     0.93929634919226 0.77399402964364 0.42785928661888 
H6    H     0.52842416165905 0.82340987636028 0.72600901336387 
H7    H     0.64353559456862 0.76409604276330 0.48976716982887 
H8    H     0.45614262429606 0.84311336802670 0.52355812009290 
H9    H     0.25308734478837 0.86031143372054 0.44378302376159 
H10   H     0.96237119440242 0.88272662917290 0.50268581604811 
H11   H     0.68609144190497 0.91163613565165 0.67800101520273 
H12   H     0.10890589948514 0.94148306092042 0.96735058569241 
H13   H     0.46510969802150 0.93037906205586 0.93954649136724 
H14   H     0.37789281919416 0.93815586792955 0.20490279430581 
H15   H     0.44636595914752 0.94858440947799 0.41246286140487 
H16   H     0.17350852011261 0.97514633823042 0.16165828883308 
H17   H     0.65418884325801 0.96821539512873 0.49012724626725 
H18   H     0.94814125331571 0.98572719745073 0.42694748341447 
