data_stdin
_audit_creation_method 'critic2'
_audit_creation_date 2023-8-11
_chemical_formula_sum 'C30 H18'
_cell_formula_units_Z 2
_cell_length_a        10.7361559657
_cell_length_b        11.6641755440
_cell_length_c         9.2694196339
_cell_angle_alpha       112.3220
_cell_angle_beta        65.2939
_cell_angle_gamma        93.4953
_cell_volume           968.891303
_space_group_crystal_system triclinic
_space_group_IT_number 2
_space_group_name_H-M_alt 'P-1'
_space_group_name_Hall '-P 1'
loop_
_symmetry_equiv_pos_site_id
_symmetry_equiv_pos_as_xyz
 1 'x,y,z'
 2 '-x,-y,-z'
loop_
_atom_site_label
_atom_site_type_symbol
_atom_site_fract_x
_atom_site_fract_y
_atom_site_fract_z
C1    C     0.61189334486983 0.82775359382953 0.36338924640893 
C2    C     0.60963537827759 0.75619783449331 0.19802200037923 
C3    C     0.69672474864619 0.92430052078512 0.38752443848581 
C4    C     0.71437504778276 0.75117814759621 0.03375196685370 
C5    C     0.85792422542733 0.76960027928009 0.99519840446554 
C6    C     0.93446680947359 0.74596584066947 0.07999814042927 
C7    C     0.51514880739558 0.80991440334585 0.51377286813582 
C8    C     0.49257325078859 0.69191881413777 0.19877496912349 
C9    C     0.69150799677863 0.99540739511490 0.54835103835501 
C10   C     0.67289291296708 0.72565827640658 0.89778736448198 
C11   C     0.93123211190968 0.81078511968194 0.85823726003605 
C12   C     0.90271045894239 0.65814755500932 0.16367591426916 
C13   C     0.05596579863396 0.80555089512595 0.06885916776355 
C14   C     0.41550137614139 0.72478695583210 0.50005498979513 
C15   C     0.40101273937217 0.67229573495179 0.34966437614883 
C16   C     0.51336064941793 0.88251185704442 0.67661179355385 
C17   C     0.46520945213657 0.64819505001624 0.05018108605062 
C18   C     0.60011177709708 0.97387903705300 0.69460099900235 
C19   C     0.54746997914150 0.67308863038559 0.90886539257142 
C20   C     0.75619019429751 0.75323426856908 0.75161798844338 
C21   C     0.87598476848290 0.80478580519283 0.74066674623038 
C22   C     0.97592739322209 0.65346139049313 0.26022938683203 
C23   C     0.06050630649827 0.85737958306064 0.83789912356304 
C24   C     0.81209408277970 0.56657093098635 0.14092452664908 
C25   C     0.11536973123581 0.86387544827491 0.94935228977951 
C26   C     0.12409944193876 0.80145432714172 0.17034667053987 
C27   C     0.08232651794390 0.73160329240198 0.26805177293073 
C28   C     0.78672050138259 0.48232526487251 0.21908021465007 
C29   C     0.94880865996701 0.56578540778383 0.33826541383865 
C30   C     0.85397038950789 0.48263219962813 0.32098328716935 
H1    H     0.76449531195138 0.94542885369139 0.27767977517421 
H2    H     0.75656544961187 0.07040812617164 0.56204426435591 
H3    H     0.34614557051046 0.70866313643445 0.61421775947739 
H4    H     0.31989115086205 0.61289346075958 0.34067114514379 
H5    H     0.43970711316841 0.86653057112333 0.78907949274992 
H6    H     0.37413544059172 0.60042644598894 0.05491479326394 
H7    H     0.59519823570592 0.03065299562285 0.82151274138619 
H8    H     0.52216095276764 0.64866246839210 0.79929501636013 
H9    H     0.72028563584037 0.73730588911836 0.65264953026900 
H10   H     0.93385637587971 0.83641604822891 0.63705736610430 
H11   H     0.11128931623041 0.89230579992295 0.73627733176998 
H12   H     0.76458778553397 0.55960649159491 0.05569096617373 
H13   H     0.20806380321402 0.90912695922736 0.94400015712106 
H14   H     0.21228435250397 0.85388729788132 0.16523978279193 
H15   H     0.13501068595617 0.72867874146024 0.34501216396130 
H16   H     0.71753295804302 0.41257242592102 0.19640829724538 
H17   H     0.00620460167533 0.56410758068442 0.41063756584337 
H18   H     0.83560181213866 0.41459227715594 0.37968068237276 
