data_stdin
_audit_creation_method 'critic2'
_audit_creation_date 2023-8-11
_chemical_formula_sum 'C30 H18'
_cell_formula_units_Z 2
_cell_length_a        10.3030133280
_cell_length_b         8.8940246212
_cell_length_c        11.4547769160
_cell_angle_alpha       113.1868
_cell_angle_beta        93.3206
_cell_angle_gamma        87.2967
_cell_volume           962.916906
_space_group_crystal_system triclinic
_space_group_IT_number 2
_space_group_name_H-M_alt 'P-1'
_space_group_name_Hall '-P 1'
loop_
_symmetry_equiv_pos_site_id
_symmetry_equiv_pos_as_xyz
 1 'x,y,z'
 2 '-x,-y,-z'
loop_
_atom_site_label
_atom_site_type_symbol
_atom_site_fract_x
_atom_site_fract_y
_atom_site_fract_z
C1    C     0.94731742643047 0.16022134712088 0.71387386209360 
C2    C     0.87426035987969 0.20466526263894 0.61945570091452 
C3    C     0.95499597770491 0.99926539877643 0.71048025392434 
C4    C     0.77570133246653 0.10538308494408 0.53111811155793 
C5    C     0.70412821478799 0.97774076741935 0.54648574460184 
C6    C     0.67361856744500 0.97191911954549 0.66645936507128 
C7    C     0.01992223893241 0.28254009259596 0.81404524028359 
C8    C     0.90219536718013 0.35669869022599 0.61341294200519 
C9    C     0.01638943396391 0.96555042210851 0.80826925087902 
C10   C     0.74553071125492 0.13472796602308 0.41846719659037 
C11   C     0.65678274586006 0.84923379279526 0.43301356650585 
C12   C     0.66721843364728 0.11330126543463 0.78611116888802 
C13   C     0.63998177753778 0.81851539362271 0.66652365257342 
C14   C     0.03276971955159 0.44015507101152 0.81153984586236 
C15   C     0.98047073961465 0.47263939072322 0.71146787020748 
C16   C     0.08160988251716 0.24493081663399 0.91329273866922 
C17   C     0.85158329060069 0.39553944252138 0.51007708848635 
C18   C     0.07694845335115 0.08989646346814 0.91275353629608 
C19   C     0.78245777776147 0.28297003713920 0.41162494662356 
C20   C     0.68080342647359 0.01467871979855 0.31202476883574 
C21   C     0.64906538582786 0.86948937762428 0.31569124190998 
C22   C     0.65572553991105 0.08962273460721 0.90172930722583 
C23   C     0.61448560145802 0.70161828454208 0.43736735778535 
C24   C     0.66068508311043 0.27683078998426 0.79449412080127 
C25   C     0.61471041144726 0.68294655337801 0.55016161843151 
C26   C     0.62729038268261 0.79969137941974 0.78338555637622 
C27   C     0.63974374011895 0.92910396804410 0.89762459614299 
C28   C     0.65508284196720 0.40869556742177 0.91004358878949 
C29   C     0.65344803865340 0.22667173565585 0.01929017115411 
C30   C     0.65508312476905 0.38412196214973 0.02429162045018 
H1    H     0.91331241822165 0.89997405122574 0.62881604845585 
H2    H     0.01918585749924 0.84119781768112 0.80423682068039 
H3    H     0.08788570968490 0.53183864418811 0.88869596111321 
H4    H     0.99539904733492 0.58937103352432 0.70487382265940 
H5    H     0.13314135839991 0.34137090728118 0.99017255125093 
H6    H     0.87298395264609 0.51351951818131 0.50867080717882 
H7    H     0.12254783131628 0.06238617561272 0.99037926350687 
H8    H     0.75241503264838 0.30628982046477 0.32735434299658 
H9    H     0.66289854972597 0.03772469918390 0.22591588305090 
H10   H     0.60918536072781 0.77179363018120 0.23135693202245 
H11   H     0.58454706515232 0.60292320610803 0.34843295762488 
H12   H     0.65723766939160 0.29895676165731 0.70773778133997 
H13   H     0.59064587209431 0.56688621056247 0.55347497129653 
H14   H     0.60707677459711 0.67822999290826 0.77882951458159 
H15   H     0.63118788219237 0.91302993171334 0.98633587689168 
H16   H     0.64908318650444 0.53262121830806 0.91286552377810 
H17   H     0.64676218125538 0.20488945799309 0.10591059418295 
H18   H     0.65307084346246 0.48858367644580 0.11507507025504 
