data_stdin
_audit_creation_method 'critic2'
_audit_creation_date 2023-8-11
_chemical_formula_sum 'C30 H18'
_cell_formula_units_Z 4
_cell_length_a        10.1965936163
_cell_length_b        10.5301681616
_cell_length_c        18.9900897324
_cell_angle_alpha        89.9989
_cell_angle_beta       104.8911
_cell_angle_gamma        90.0003
_cell_volume          1970.523214
_space_group_crystal_system monoclinic
_space_group_IT_number 14
_space_group_name_H-M_alt 'P2_1/c'
_space_group_name_Hall '-P 2ybc'
loop_
_symmetry_equiv_pos_site_id
_symmetry_equiv_pos_as_xyz
 1 'x,y,z'
 2 '-x,-y,-z'
 3 '-x,-1/2+y,-1/2-z'
 4 'x,-1/2-y,-1/2+z'
loop_
_atom_site_label
_atom_site_type_symbol
_atom_site_fract_x
_atom_site_fract_y
_atom_site_fract_z
C1    C     0.01686845092402 0.20008453844321 0.38349252067956 
C2    C     0.07643274271310 0.18576985665309 0.46119643711084 
C3    C     0.02975700308690 0.10819960911582 0.33115563932106 
C4    C     0.18162396391237 0.09541728331244 0.49359261792484 
C5    C     0.27676954742237 0.03945786963095 0.45751728705885 
C6    C     0.32181529246860 0.09832343492385 0.39913295508482 
C7    C     0.92964832502466 0.30610338801073 0.35780622141228 
C8    C     0.02181845606108 0.26157612543524 0.50881387128225 
C9    C     0.96934543216196 0.12407599450882 0.25768120778637 
C10   C     0.19255811325652 0.05658900034404 0.56697400091271 
C11   C     0.33199262159501 0.91805569271934 0.48229108550204 
C12   C     0.32503838457881 0.23437398647744 0.38765224416792 
C13   C     0.37453273296449 0.01895382008601 0.35243386020073 
C14   C     0.89144046410520 0.38920539819788 0.40836789435667 
C15   C     0.93074242009449 0.36328520737766 0.48113619464741 
C16   C     0.87325571247136 0.32290861210094 0.28210904548153 
C17   C     0.05581172826884 0.23568845570893 0.58488137203119 
C18   C     0.89353286318257 0.23435102254247 0.23243675670438 
C19   C     0.13090000028697 0.13097580472426 0.61226996012675 
C20   C     0.26435708154955 0.94367038303759 0.59450260795430 
C21   C     0.32230003966501 0.87095736721586 0.55099291736900 
C22   C     0.34684107585223 0.28130689670722 0.32080505381131 
C23   C     0.39819340237215 0.84527475773359 0.43837743039742 
C24   C     0.32105276270995 0.32441382056117 0.44253453010667 
C25   C     0.40977214606743 0.89078331374315 0.37274544583855 
C26   C     0.39413082055858 0.06860159846281 0.28584353376302 
C27   C     0.37351689222459 0.19416021264213 0.26855516030464 
C28   C     0.33102955931594 0.45344933128963 0.43108503650492 
C29   C     0.35035960084951 0.41390840384904 0.30922197762880 
C30   C     0.34240772970683 0.49923519341145 0.36320717993713 
H1    H     0.08413457626939 0.02073415607191 0.34924117113509 
H2    H     0.97829287027218 0.04912807661590 0.21964915170542 
H3    H     0.82540949017444 0.46961084476607 0.38761246827875 
H4    H     0.89566003205207 0.42158427971459 0.51998472965241 
H5    H     0.80999470108354 0.40592219597116 0.26387651396363 
H6    H     0.01513491673238 0.29710135436268 0.62019328111668 
H7    H     0.84733549589971 0.24846214909825 0.17459339566405 
H8    H     0.14598459446054 0.10410830026961 0.66914138331600 
H9    H     0.26601408772883 0.91300987697649 0.64948764205523 
H10   H     0.36794050599026 0.77951012639128 0.56969083287586 
H11   H     0.43692863926728 0.75181101880999 0.45782134796105 
H12   H     0.31340638460237 0.29125942922758 0.49547801938022 
H13   H     0.45272855561075 0.83248679956476 0.33682404198445 
H14   H     0.42517434107243 0.00337265030122 0.24857548167617 
H15   H     0.38373621607136 0.23053158256441 0.21649842402604 
H16   H     0.33152969141879 0.51961893392069 0.47525836274653 
H17   H     0.36289407487068 0.44779999613342 0.25713806584595 
H18   H     0.34674193445935 0.60083526374219 0.35358332535849 
