data_stdin
_audit_creation_method 'critic2'
_audit_creation_date 2023-8-11
_chemical_formula_sum 'C30 H18'
_cell_formula_units_Z 4
_cell_length_a         8.5157146052
_cell_length_b        11.3742435397
_cell_length_c        21.1790307496
_cell_angle_alpha        90.0026
_cell_angle_beta        71.8411
_cell_angle_gamma        90.0004
_cell_volume          1949.229017
_space_group_crystal_system monoclinic
_space_group_IT_number 14
_space_group_name_H-M_alt 'P2_1/c'
_space_group_name_Hall '-P 2ybc'
loop_
_symmetry_equiv_pos_site_id
_symmetry_equiv_pos_as_xyz
 1 'x,y,z'
 2 '-x,-y,-z'
 3 '-x,-1/2+y,-1/2-z'
 4 'x,-1/2-y,-1/2+z'
loop_
_atom_site_label
_atom_site_type_symbol
_atom_site_fract_x
_atom_site_fract_y
_atom_site_fract_z
C1    C     0.29575347746031 0.77828967983211 0.06282218765387 
C2    C     0.46082484758584 0.82304986857483 0.05415096791666 
C3    C     0.14961130241311 0.83753517990896 0.09996160558004 
C4    C     0.49929205119308 0.91560440362390 0.09380671139389 
C5    C     0.40068369787642 0.94656453067329 0.16085870924892 
C6    C     0.29752577861025 0.86642339329991 0.20931913219485 
C7    C     0.27607812291989 0.67548142893637 0.02698914293947 
C8    C     0.59222035377863 0.77730033467735 0.00029158575715 
C9    C     0.99426336806931 0.79579184287569 0.10398049104512 
C10   C     0.64506052811095 0.98339244198642 0.06448682830985 
C11   C     0.40914178964897 0.06577908481628 0.18082573487892 
C12   C     0.32026272995341 0.73977668132259 0.20849804975258 
C13   C     0.16963511576940 0.91518575807157 0.26336152384351 
C14   C     0.41673186173370 0.62184174557912 0.98102903612462 
C15   C     0.56792642699983 0.67425166134338 0.96610142969700 
C16   C     0.11571546966915 0.63224369882201 0.03358355160598 
C17   C     0.74805554154803 0.83529656133592 0.97942205028839 
C18   C     0.97630232053325 0.69091325769552 0.07142290417466 
C19   C     0.76928613325938 0.93973094386694 0.00758186720359 
C20   C     0.66587220263748 0.09425211370668 0.09202746906392 
C21   C     0.54359546589574 0.13835860592123 0.14507540993429 
C22   C     0.19496767310709 0.66773000777460 0.25220139993187 
C23   C     0.28440697628401 0.11029707891523 0.23730820270513 
C24   C     0.46722912463228 0.68293913078884 0.17041658478966 
C25   C     0.16152079240855 0.03870737518532 0.27467472255076 
C26   C     0.04866464504020 0.84054242451368 0.30695213081732 
C27   C     0.05662141165851 0.72125091687936 0.29975032795555 
C28   C     0.48430868408195 0.56215156764640 0.17104568363847 
C29   C     0.21344234720953 0.54397589868952 0.25058121495827 
C30   C     0.35463364068323 0.49120339003200 0.20985945384833 
H1    H     0.16007457588364 0.92030873769993 0.12378041896387 
H2    H     0.88503976192072 0.84579493376579 0.13119970969054 
H3    H     0.40062675465633 0.54147892691300 0.95592514748059 
H4    H     0.67317157035070 0.63778232892712 0.92745144536521 
H5    H     0.10543975992441 0.55322278278573 0.00601802116969 
H6    H     0.84713488152531 0.79752574234067 0.93875583316741 
H7    H     0.85360194757396 0.65870231612936 0.07470532130560 
H8    H     0.88225598351248 0.99053766519239 0.98786664416977 
H9    H     0.77629871553886 0.14551199296531 0.06786102932547 
H10   H     0.55201649271314 0.22706423698439 0.16306092930586 
H11   H     0.28737855888252 0.20299683438547 0.24972860364137 
H12   H     0.57078126660541 0.73571889192745 0.14144891152063 
H13   H     0.06084144186709 0.07406196940597 0.31557277259419 
H14   H     0.94843153238601 0.88228863168034 0.34558673302403 
H15   H     0.96099459556784 0.66470352341234 0.33136228527182 
H16   H     0.60111432140912 0.52175996355570 0.14311813759156 
H17   H     0.11459026735974 0.49108841691236 0.28322154092555 
H18   H     0.36839184253645 0.39604428869770 0.20949560061971 
