data_stdin
_audit_creation_method 'critic2'
_audit_creation_date 2023-8-11
_chemical_formula_sum 'C30 H18'
_cell_formula_units_Z 4
_cell_length_a        12.6696379300
_cell_length_b         9.4556967900
_cell_length_c        16.4791655200
_cell_angle_alpha        90.0000
_cell_angle_beta        90.0000
_cell_angle_gamma        90.0001
_cell_volume          1974.208227
_space_group_crystal_system orthorhombic
_space_group_IT_number 19
_space_group_name_H-M_alt 'P2_12_12_1'
_space_group_name_Hall 'P 2ac 2ab'
loop_
_symmetry_equiv_pos_site_id
_symmetry_equiv_pos_as_xyz
 1 'x,y,z'
 2 '-1/2-x,-y,-1/2+z'
 3 '-x,-1/2+y,-1/2-z'
 4 '-1/2+x,-1/2-y,-z'
loop_
_atom_site_label
_atom_site_type_symbol
_atom_site_fract_x
_atom_site_fract_y
_atom_site_fract_z
C1    C     0.17020652930405 0.53148977274443 0.25089597841739 
C2    C     0.10566274472242 0.51709541921679 0.32324973896704 
C3    C     0.21601049513754 0.41495896828900 0.20983269728476 
C4    C     0.10314334081765 0.39328908289363 0.37472838112750 
C5    C     0.18627236320988 0.28831762506738 0.38031696060548 
C6    C     0.29753628550295 0.31427601301282 0.36688976459270 
C7    C     0.18150819245936 0.66804204252206 0.21421728010970 
C8    C     0.03662947635179 0.63102709861383 0.34245448962336 
C9    C     0.27629090775834 0.43316985221867 0.14058430336633 
C10   C     0.01097973241507 0.37042146174128 0.42301595452614 
C11   C     0.15559727842506 0.14803474457690 0.40222036917910 
C12   C     0.34893909006258 0.45007273229813 0.37840618440762 
C13   C     0.36271786195939 0.19672501593562 0.34669920719357 
C14   C     0.12314870256169 0.78532173227820 0.24499418334037 
C15   C     0.04904753819427 0.76524491801862 0.30393715326388 
C16   C     0.24551476653528 0.68404224343064 0.14443504741224 
C17   C     0.95416840121689 0.61189886978698 0.40011890967247 
C18   C     0.29398261160423 0.56925691298340 0.10856829244568 
C19   C     0.93793278483150 0.48283345771764 0.43559768943357 
C20   C     0.99033965459720 0.23448437931922 0.45654336759853 
C21   C     0.05621412287530 0.12362403337922 0.44009322801938 
C22   C     0.45680550603120 0.46707638517473 0.35402808944072 
C23   C     0.22516443569349 0.03297831552249 0.38647502636593 
C24   C     0.30141839372628 0.56452497013496 0.42006358692437 
C25   C     0.32284505462866 0.05631391716221 0.35371219080895 
C26   C     0.46937706255258 0.21808359555998 0.32182215860841 
C27   C     0.51340684553595 0.34971104823226 0.32175951933115 
C28   C     0.35454731724928 0.68997943875301 0.43324341732975 
C29   C     0.50894018512663 0.59769401186410 0.36702662341644 
C30   C     0.45880372976070 0.70849219061149 0.40553963095911 
H1    H     0.20164576403913 0.30858976181077 0.23202073368479 
H2    H     0.30928696792455 0.34086071926422 0.11019196470923 
H3    H     0.13421648143676 0.88907755600656 0.21761977213231 
H4    H     0.99817145771903 0.85192602441286 0.32309847729167 
H5    H     0.25386811400478 0.78903689188908 0.11795677018148 
H6    H     0.90211623055286 0.70102016791121 0.41237943465975 
H7    H     0.34336806732087 0.58404680758561 0.05518074857348 
H8    H     0.87065257622041 0.46412853270498 0.47542215831694 
H9    H     0.91842618692908 0.21890667713406 0.49146692115294 
H10   H     0.03601794649779 0.01667931939322 0.45921645976079 
H11   H     0.19728960089263 0.92601027529590 0.39820152120733 
H12   H     0.22229088543613 0.55291977359781 0.44407648405841 
H13   H     0.37400481311009 0.96818191907920 0.33739700948428 
H14   H     0.51570013906949 0.12657773691081 0.30349003587020 
H15   H     0.59456827443039 0.36479008629470 0.30183177853896 
H16   H     0.31544002006819 0.77483439648574 0.46618110649625 
H17   H     0.59052743200769 0.60797259793672 0.34683212053502 
H18   H     0.49963554166037 0.80810669208630 0.41622115891471 
