data_stdin
_audit_creation_method 'critic2'
_audit_creation_date 2023-8-11
_chemical_formula_sum 'C30 H18'
_cell_formula_units_Z 4
_cell_length_a        12.0003384851
_cell_length_b        11.2839736400
_cell_length_c        15.4891177159
_cell_angle_alpha        89.9999
_cell_angle_beta        69.0533
_cell_angle_gamma        90.0000
_cell_volume          1958.794665
_space_group_crystal_system monoclinic
_space_group_IT_number 14
_space_group_name_H-M_alt 'P2_1/c'
_space_group_name_Hall '-P 2ybc'
loop_
_symmetry_equiv_pos_site_id
_symmetry_equiv_pos_as_xyz
 1 'x,y,z'
 2 '-x,-y,-z'
 3 '-x,-1/2+y,-1/2-z'
 4 'x,-1/2-y,-1/2+z'
loop_
_atom_site_label
_atom_site_type_symbol
_atom_site_fract_x
_atom_site_fract_y
_atom_site_fract_z
C1    C     0.64710653822115 0.84510764803042 0.51087903602391 
C2    C     0.57798446944861 0.76458571809034 0.58328969022081 
C3    C     0.71964935828169 0.80740761155380 0.42116058994667 
C4    C     0.59540667423756 0.63743939066011 0.58211430053360 
C5    C     0.70532792356775 0.57526997582119 0.53065034358878 
C6    C     0.82437382284298 0.62379021946750 0.50503899740918 
C7    C     0.63564250518764 0.97025410610868 0.52724095228614 
C8    C     0.48224731926668 0.81414664854949 0.65827924804861 
C9    C     0.78470582683325 0.88673880230399 0.35392841405257 
C10   C     0.49531982917903 0.56670239570577 0.63441625631216 
C11   C     0.69470494606286 0.45605085597248 0.50335301831028 
C12   C     0.85668069491788 0.72074807187821 0.55301717085657 
C13   C     0.91752516422671 0.57035006120185 0.43025594337180 
C14   C     0.54991189770682 0.01487862158955 0.61063190348350 
C15   C     0.47239137907679 0.93935601864685 0.67169059884740 
C16   C     0.70499511853947 0.04927824253452 0.45814529029618 
C17   C     0.39344870659051 0.73918867891419 0.71946863752324 
C18   C     0.77968481896095 0.00889591858327 0.37309532658437 
C19   C     0.39543141601595 0.61990470011640 0.70367999380906 
C20   C     0.49454098894115 0.44307704060384 0.61653809146356 
C21   C     0.58706794525901 0.39198177352515 0.54719879367203 
C22   C     0.96997407985814 0.77745511335026 0.51087025810626 
C23   C     0.79228376640914 0.40119742605988 0.43312302670396 
C24   C     0.78577909531371 0.75721892622539 0.64355201403760 
C25   C     0.89805888924578 0.45985536364113 0.39362671033061 
C26   C     0.03131243195548 0.62667749763204 0.39213523172455 
C27   C     0.05448147464117 0.73040876111148 0.42772116393918 
C28   C     0.82030191470828 0.85007945085045 0.68671885667824 
C29   C     0.00100135047010 0.87495400702300 0.55501187282239 
C30   C     0.92690935761258 0.91223700521290 0.64133214705687 
H1    H     0.72371163841955 0.71382498520590 0.40429786874205 
H2    H     0.83870833397149 0.85359807345488 0.28578022468489 
H3    H     0.54317468087849 0.11016960431526 0.62238283250319 
H4    H     0.40106772723417 0.97321532295963 0.73227719241806 
H5    H     0.69594218321544 0.14380605400519 0.47292739693448 
H6    H     0.32147469934402 0.78004574250242 0.77618016663841 
H7    H     0.83226893933716 0.07156831646760 0.32098738469003 
H8    H     0.32305097472136 0.56300908423114 0.74559333331704 
H9    H     0.41657171117920 0.39133625947843 0.65615491435294 
H10   H     0.58095927388465 0.30077090610031 0.52643235173031 
H11   H     0.78027103937037 0.31258399349829 0.41009802043537 
H12   H     0.70402005803676 0.70972314842187 0.68092773978254 
H13   H     0.97123816891700 0.41960858756878 0.33751965014109 
H14   H     0.09944352813577 0.58424703729719 0.33375382676405 
H15   H     0.14017767382518 0.77507871393960 0.39718558392680 
H16   H     0.76565785319649 0.87433151076633 0.75716438873002 
H17   H     0.08598915208191 0.91897948043080 0.52048068262698 
H18   H     0.95217264843197 0.98701571860996 0.67485307286185 
