data_stdin
_audit_creation_method 'critic2'
_audit_creation_date 2023-8-11
_chemical_formula_sum 'C30 H18'
_cell_formula_units_Z 2
_cell_length_a        10.8895164638
_cell_length_b         8.4537342420
_cell_length_c        11.2885557788
_cell_angle_alpha        75.6681
_cell_angle_beta        89.5404
_cell_angle_gamma        75.2882
_cell_volume           972.171693
_space_group_crystal_system triclinic
_space_group_IT_number 2
_space_group_name_H-M_alt 'P-1'
_space_group_name_Hall '-P 1'
loop_
_symmetry_equiv_pos_site_id
_symmetry_equiv_pos_as_xyz
 1 'x,y,z'
 2 '-x,-y,-z'
loop_
_atom_site_label
_atom_site_type_symbol
_atom_site_fract_x
_atom_site_fract_y
_atom_site_fract_z
C1    C     0.23084899566381 0.32482311291949 0.91049667075228 
C2    C     0.09640006266028 0.35005524050451 0.88223043055139 
C3    C     0.30120407310406 0.43918998635365 0.85207983352278 
C4    C     0.02500263195258 0.47043810186187 0.77577693369134 
C5    C     0.07713190647734 0.53209383993344 0.65987311218165 
C6    C     0.18788273533916 0.43953579416321 0.61112943560762 
C7    C     0.29468870315218 0.18692823759240 0.00972092064794 
C8    C     0.02872037954615 0.25634717326005 0.96875260253234 
C9    C     0.42808272595737 0.41449661145677 0.88483815524523 
C10   C     0.89174294691622 0.53476372272615 0.78521102278167 
C11   C     0.01129699094317 0.69541559347864 0.58688783327918 
C12   C     0.23858503460380 0.25694097352143 0.64749255515339 
C13   C     0.24783909533952 0.53124328522785 0.51540686252800 
C14   C     0.22534234270013 0.07850611556119 0.08101459572425 
C15   C     0.09623014072386 0.11645668529540 0.06412678622419 
C16   C     0.42474822544375 0.16399192327900 0.04123012058734 
C17   C     0.89327750025437 0.30334442506543 0.96183481099414 
C18   C     0.49147209046981 0.27463602132791 0.97928176180515 
C19   C     0.82744354189561 0.44666722598045 0.87874103669755 
C20   C     0.82358793723724 0.68702799303873 0.70152312829539 
C21   C     0.88470431488228 0.77248050614822 0.61153648215735 
C22   C     0.36167737647362 0.18309777728572 0.61100469878414 
C23   C     0.07100781207262 0.77984245622364 0.48721472247150 
C24   C     0.16723432570706 0.14467277651033 0.70689118306327 
C25   C     0.18897697945098 0.70347195919723 0.45678083236752 
C26   C     0.36769511483351 0.45179824430853 0.47688286667110 
C27   C     0.42727388132577 0.28645235215330 0.52930286355464 
C28   C     0.21596266040143 0.97112603072067 0.73378618640387 
C29   C     0.41271611945151 0.00549621463132 0.64650145959716 
C30   C     0.34120359452193 0.90015237872878 0.70668048613825 
H1    H     0.25362400282207 0.55100410630088 0.78181461925964 
H2    H     0.47911915427279 0.50573602053608 0.83903426258079 
H3    H     0.27664992040396 0.97035377333747 0.15297512592472 
H4    H     0.04200612705077 0.04027755688432 0.12354449389612 
H5    H     0.47152070631792 0.05774162929643 0.11651032678228 
H6    H     0.84379907399080 0.22877494877757 0.02842581140012 
H7    H     0.59141088121976 0.25534047398982 0.00479409719939 
H8    H     0.72497490631443 0.49473560910568 0.88163753019247 
H9    H     0.72319794890340 0.73653459774433 0.71416894106526 
H10   H     0.83569655068576 0.89487709476179 0.55220550779238 
H11   H     0.02081029643126 0.90681581509959 0.43633818991621 
H12   H     0.06967798591411 0.19602249128423 0.72643990522743 
H13   H     0.23703654532475 0.77008454896396 0.38343455795631 
H14   H     0.41242426569759 0.52795315491001 0.40634492878029 
H15   H     0.52151352576014 0.22885617924889 0.50345904509883 
H16   H     0.15608704131660 0.88860818925883 0.77371574963870 
H17   H     0.50821091965557 0.95314220271246 0.62067162509566 
H18   H     0.37979314929179 0.76358568110962 0.73006031758912 
