data_stdin
_audit_creation_method 'critic2'
_audit_creation_date 2023-8-11
_chemical_formula_sum 'C30 H18'
_cell_formula_units_Z 4
_cell_length_a        12.9948686408
_cell_length_b        14.0782970600
_cell_length_c        11.5502485384
_cell_angle_alpha        90.0003
_cell_angle_beta        71.3673
_cell_angle_gamma        89.9999
_cell_volume          2002.313272
_space_group_crystal_system monoclinic
_space_group_IT_number 14
_space_group_name_H-M_alt 'P2_1/c'
_space_group_name_Hall '-P 2ybc'
loop_
_symmetry_equiv_pos_site_id
_symmetry_equiv_pos_as_xyz
 1 'x,y,z'
 2 '-x,-y,-z'
 3 '-1/2-x,-1/2+y,-1/2-z'
 4 '-1/2+x,-1/2-y,-1/2+z'
loop_
_atom_site_label
_atom_site_type_symbol
_atom_site_fract_x
_atom_site_fract_y
_atom_site_fract_z
C1    C     0.95029934981956 0.09301511256756 0.77128335956439 
C2    C     0.02945871968036 0.10134339733729 0.65037899815686 
C3    C     0.85882099007112 0.15352759259999 0.81489657673088 
C4    C     0.03896995039847 0.18274319552492 0.57157634267937 
C5    C     0.00760723854217 0.27880704578622 0.61318980135260 
C6    C     0.00779449213744 0.31721306900890 0.72919228826046 
C7    C     0.95690658088931 0.01399714353481 0.84669912399587 
C8    C     0.09473033823249 0.02052086033788 0.60213858069730 
C9    C     0.78361427773795 0.14183421632197 0.92970230733383 
C10   C     0.07943941213926 0.16730856097357 0.44281665071343 
C11   C     0.97409502396273 0.33976968612182 0.53311697845073 
C12   C     0.07641086083740 0.28308773820221 0.79803731335205 
C13   C     0.94024696994936 0.39707317320084 0.77638775356641 
C14   C     0.03768317617148 0.94259811929672 0.80028099426424 
C15   C     0.10132161579606 0.94406131720177 0.68071437182476 
C16   C     0.87992522557339 0.00448163088801 0.96470703613723 
C17   C     0.14857772259420 0.01324599907589 0.47412484692113 
C18   C     0.79540864337048 0.06821142093791 0.00701905697450 
C19   C     0.13488113581984 0.08153735018181 0.39614968102233 
C20   C     0.06077704777288 0.23654733602472 0.36176264465966 
C21   C     0.00164651236377 0.31649717652292 0.40677103489450 
C22   C     0.05512195005882 0.31434756139802 0.92153305043545 
C23   C     0.91458643619590 0.42391073731173 0.57995365816835 
C24   C     0.17068497529614 0.22721259991505 0.74598074282319 
C25   C     0.89227934567641 0.44816490842957 0.70018712657313 
C26   C     0.92079053381958 0.42596153385766 0.90004407774079 
C27   C     0.97163379954787 0.38243664790518 0.97231303778071 
C28   C     0.23653729924784 0.19966555750394 0.81337679396604 
C29   C     0.12203233947836 0.28284057860737 0.98953588984687 
C30   C     0.21135150776110 0.22589659269457 0.93712294680616 
H1    H     0.84560718103405 0.20947862765535 0.75654230585169 
H2    H     0.71431607557130 0.18951181297007 0.95943005426111 
H3    H     0.04354471263680 0.88465230326377 0.86034928099486 
H4    H     0.15704175951745 0.88581968996775 0.64246807485312 
H5    H     0.88828964769329 0.94504515921039 0.02122273936467 
H6    H     0.19336544385512 0.94825618937562 0.43920977123217 
H7    H     0.73736581402854 0.06104299601423 0.09859316762695 
H8    H     0.16606305036153 0.07177454244974 0.29762896135087 
H9    H     0.08939249078847 0.22120068765190 0.26426312466965 
H10   H     0.97914498504750 0.36623888970221 0.34668041937602 
H11   H     0.88525818801345 0.46771017092490 0.51940198635821 
H12   H     0.19399495657076 0.20748623185938 0.65020496489597 
H13   H     0.84219632317199 0.51004472552529 0.73694430224308 
H14   H     0.86314067302956 0.48308836447175 0.93644682015827 
H15   H     0.95466360745099 0.40418109973753 0.06707692036157 
H16   H     0.30913773192428 0.15794360256174 0.76953571292345 
H17   H     0.10311279674615 0.30700894858531 0.08375355436490 
H18   H     0.26304298426471 0.20306434275645 0.98980495881252 
