data_stdin
_audit_creation_method 'critic2'
_audit_creation_date 2023-8-11
_chemical_formula_sum 'C30 H18'
_cell_formula_units_Z 2
_cell_length_a        11.8704550465
_cell_length_b        11.5229241570
_cell_length_c         8.2082008545
_cell_angle_alpha        70.7011
_cell_angle_beta        77.4692
_cell_angle_gamma        95.9356
_cell_volume          1015.549345
_space_group_crystal_system triclinic
_space_group_IT_number 2
_space_group_name_H-M_alt 'P-1'
_space_group_name_Hall '-P 1'
loop_
_symmetry_equiv_pos_site_id
_symmetry_equiv_pos_as_xyz
 1 'x,y,z'
 2 '-x,-y,-z'
loop_
_atom_site_label
_atom_site_type_symbol
_atom_site_fract_x
_atom_site_fract_y
_atom_site_fract_z
C1    C     0.90273449295228 0.20368516789411 0.06940771957595 
C2    C     0.89634951254200 0.14312714896168 0.94140913813129 
C3    C     0.82830313585429 0.15690363010622 0.24647479646997 
C4    C     0.79767959422079 0.05089370350858 0.95878008030361 
C5    C     0.67730187421916 0.04042649033774 0.05647374581355 
C6    C     0.62702578148878 0.14230317070149 0.08963409754855 
C7    C     0.99674280337844 0.30644089024530 0.02509241550673 
C8    C     0.99813982114846 0.16939956532740 0.79678896047107 
C9    C     0.84220130489490 0.21120976883355 0.36961719903444 
C10   C     0.82104116050971 0.96128310819774 0.87633022258262 
C11   C     0.60241760829602 0.92012789278891 0.12471010186508 
C12   C     0.66882637023634 0.27380734822994 0.97837539254649 
C13   C     0.52501201791918 0.11193077493967 0.23480973910146 
C14   C     0.08642118867629 0.34406163582026 0.86067433300082 
C15   C     0.08989999167254 0.27335440706017 0.75580065257323 
C16   C     0.00650717676755 0.36358600909497 0.15121720810733 
C17   C     0.01072361659749 0.08946461776216 0.69651683060604 
C18   C     0.93077089826516 0.31713032656433 0.32116972779731 
C19   C     0.92866285931730 0.98343384226242 0.74405046609579 
C20   C     0.73764703349559 0.84880763872465 0.92908070609813 
C21   C     0.63555396482384 0.82495891342285 0.05981472884385 
C22   C     0.62657194674941 0.36695460830977 0.04251035121418 
C23   C     0.49420986291410 0.89568094335551 0.25704664660059 
C24   C     0.74109166788357 0.31553428019138 0.80042715491252 
C25   C     0.46104988928111 0.98673030166127 0.31913932192196 
C26   C     0.48522930520850 0.20713713580424 0.29546562459583 
C27   C     0.53866533257611 0.32976932275636 0.20886500914333 
C28   C     0.77467738593334 0.44146547855194 0.69471555874430 
C29   C     0.66531683460350 0.49535006048825 0.93434100812688 
C30   C     0.73834512263638 0.53263996782161 0.76306931126075 
H1    H     0.76200132945174 0.07298361173371 0.28848993448191 
H2    H     0.78631604289188 0.16969470911952 0.50634113072924 
H3    H     0.15578719685398 0.42424276688701 0.82824794523814 
H4    H     0.16444846537458 0.29349671545668 0.63998260420612 
H5    H     0.07750911187658 0.44304604839734 0.11307641507950 
H6    H     0.09083979812895 0.10965710416954 0.58948111389114 
H7    H     0.94212968042119 0.35948814226576 0.41851326518912 
H8    H     0.94415513210353 0.91492927120695 0.68084573238852 
H9    H     0.75996366029630 0.78015033943944 0.86880983516045 
H10   H     0.57467097417247 0.73566462899821 0.10998174189329 
H11   H     0.44064965222649 0.80191865403161 0.31148025429613 
H12   H     0.76871443588480 0.24681257428538 0.74420403544264 
H13   H     0.38279577676306 0.96640936659048 0.42899666756517 
H14   H     0.41161402315493 0.17878552439027 0.41472128352398 
H15   H     0.50957861495602 0.40168165287925 0.25781027515583 
H16   H     0.82877743121037 0.47006739542533 0.55754085726116 
H17   H     0.63266526802615 0.56447029697200 0.98666566210322 
H18   H     0.76631415803866 0.63181069133113 0.68069327315241 
