data_stdin
_audit_creation_method 'critic2'
_audit_creation_date 2023-8-11
_chemical_formula_sum 'C30 H18'
_cell_formula_units_Z 8
_cell_length_a        17.3225452191
_cell_length_b         9.3636377201
_cell_length_c        24.2163400413
_cell_angle_alpha        90.0001
_cell_angle_beta        88.2951
_cell_angle_gamma        90.0005
_cell_volume          3926.200972
_space_group_crystal_system monoclinic
_space_group_IT_number 15
_space_group_name_H-M_alt 'C2/c'
_space_group_name_Hall '-C 2yc'
loop_
_symmetry_equiv_pos_site_id
_symmetry_equiv_pos_as_xyz
 1 'x,y,z'
 2 '-x,-y,-z'
 3 '-x,y,-1/2-z'
 4 'x,-y,-1/2+z'
 5 '-1/2+x,-1/2+y,z'
 6 '-1/2-x,-1/2-y,-z'
 7 '-1/2-x,-1/2+y,-1/2-z'
 8 '-1/2+x,-1/2-y,-1/2+z'
loop_
_atom_site_label
_atom_site_type_symbol
_atom_site_fract_x
_atom_site_fract_y
_atom_site_fract_z
C1    C     0.44390466093217 0.40028239129284 0.06713884342932 
C2    C     0.50438715475145 0.30694849015104 0.08636583676932 
C3    C     0.45579051231975 0.54675999773547 0.05498185701227 
C4    C     0.57481038348083 0.35534913192990 0.11103998336566 
C5    C     0.58479922429377 0.49218869643418 0.13812296539080 
C6    C     0.52340472356044 0.57670297289376 0.16330141218642 
C7    C     0.37053574454893 0.34040400145112 0.05461136236141 
C8    C     0.49503795587801 0.15770134872952 0.07746309358885 
C9    C     0.39737618969395 0.63125030358276 0.03508307757615 
C10   C     0.64013296591783 0.26223503403968 0.10778801576641 
C11   C     0.66131999929306 0.54817600356159 0.13949745902108 
C12   C     0.45048405377751 0.51927182208039 0.18414270245281 
C13   C     0.53590732268504 0.72574086539498 0.16964001217185 
C14   C     0.35977748477220 0.18935481998945 0.05632372682788 
C15   C     0.42124239834515 0.10123499804544 0.06413750078715 
C16   C     0.31065952646253 0.43026226686165 0.03651996637445 
C17   C     0.55928207455862 0.06385858957110 0.08122995108752 
C18   C     0.32351946493548 0.57368551570703 0.02687130156639 
C19   C     0.63071066662114 0.11649906599642 0.09272479255112 
C20   C     0.71533938856573 0.31511883557234 0.11846999313002 
C21   C     0.72590061648722 0.45675101498922 0.12960844853427 
C22   C     0.38763075923576 0.61461137254364 0.19581622002204 
C23   C     0.67329478460344 0.69488379839640 0.15194205916453 
C24   C     0.43981452360599 0.37326119923519 0.19744617514654 
C25   C     0.61180295933347 0.78284492886623 0.16318166859761 
C26   C     0.47235465689744 0.81823824889972 0.18269465309738 
C27   C     0.39978932446842 0.76512413231099 0.19215192425224 
C28   C     0.36942208681435 0.32213757727464 0.21730671084179 
C29   C     0.31531310209179 0.55898057730329 0.21403584276060 
C30   C     0.30589527034297 0.41490426301607 0.22422363248817 
H1    H     0.51288755386469 0.59241612375238 0.05914133614198 
H2    H     0.40924090013055 0.74211137844905 0.02425403246832 
H3    H     0.30289934304885 0.14593336844155 0.04827834865058 
H4    H     0.41518352840928 0.98566024427550 0.06106501753932 
H5    H     0.25464955097560 0.38250323468020 0.02880692535095 
H6    H     0.55112191228151 0.95073575522476 0.07264774463962 
H7    H     0.27767243053800 0.64057356798532 0.01124221234645 
H8    H     0.68131330103524 0.04744221946276 0.09208266656133 
H9    H     0.76417465721515 0.24206784671669 0.11489961849734 
H10   H     0.78365291886523 0.50111837196466 0.13334541639809 
H11   H     0.73213182895692 0.73613491286638 0.15094453879366 
H12   H     0.48851615550324 0.30081936274519 0.19307151625521 
H13   H     0.62014527871288 0.89675948530109 0.16971149337110 
H14   H     0.48320298878366 0.93282873750356 0.18416821251992 
H15   H     0.35108454567636 0.83636182857977 0.20029419065672 
H16   H     0.36342372936156 0.20953308707859 0.22802254984055 
H17   H     0.26754182995738 0.63291538562219 0.22135765891126 
H18   H     0.25027897227777 0.37383584564027 0.23897267844454 
