data_stdin
_audit_creation_method 'critic2'
_audit_creation_date 2023-8-11
_chemical_formula_sum 'C30 H18'
_cell_formula_units_Z 4
_cell_length_a         9.0505572760
_cell_length_b        16.7367246902
_cell_length_c        16.3564400655
_cell_angle_alpha        90.0004
_cell_angle_beta        53.7184
_cell_angle_gamma        90.0000
_cell_volume          1997.254203
_space_group_crystal_system monoclinic
_space_group_IT_number 14
_space_group_name_H-M_alt 'P2_1/c'
_space_group_name_Hall '-P 2ybc'
loop_
_symmetry_equiv_pos_site_id
_symmetry_equiv_pos_as_xyz
 1 'x,y,z'
 2 '-x,-y,-z'
 3 '-x,-1/2+y,-1/2-z'
 4 'x,-1/2-y,-1/2+z'
loop_
_atom_site_label
_atom_site_type_symbol
_atom_site_fract_x
_atom_site_fract_y
_atom_site_fract_z
C1    C     0.57230971759273 0.53670963906143 0.69066345904201 
C2    C     0.50010781634453 0.47927892003887 0.65637285610602 
C3    C     0.75602748207830 0.53537499711100 0.65849666869903 
C4    C     0.58681620979029 0.40400463314668 0.60935742659940 
C5    C     0.70623956199550 0.36077774604216 0.62544270565263 
C6    C     0.69621513248491 0.36384815137807 0.71692432107738 
C7    C     0.45985941305928 0.60236798899858 0.75256981245925 
C8    C     0.33968397581038 0.50022705121970 0.66456793316993 
C9    C     0.82043844111956 0.59155860292743 0.69223391221167 
C10   C     0.55406454214034 0.36992377213786 0.54153125309283 
C11   C     0.84199168606792 0.31053438919604 0.54503295214562 
C12   C     0.53216213386261 0.38395444512765 0.81640196645672 
C13   C     0.85524341215951 0.34190406323349 0.70982862170443 
C14   C     0.28531954481578 0.61402613396407 0.77213515449930 
C15   C     0.23206365471041 0.56684836877583 0.72563812381761 
C16   C     0.52715896371634 0.65780393011840 0.78872786062488 
C17   C     0.29095799032158 0.45650293573807 0.60898358481667 
C18   C     0.70407894895723 0.65205322285697 0.76026080417393 
C19   C     0.40341250387836 0.39746213495605 0.54320736719860 
C20   C     0.67371615017036 0.30949341800455 0.47206270398458 
C21   C     0.82241776620188 0.28608167641499 0.46851370571692 
C22   C     0.54602110478890 0.39823394175633 0.89795315365780 
C23   C     0.99286585801775 0.28365504210619 0.54352210694944 
C24   C     0.35440130450712 0.38505277820415 0.83960868014383 
C25   C     0.00419920577600 0.30327118601664 0.62087293655549 
C26   C     0.86471782276651 0.35764642385856 0.79243691225650 
C27   C     0.71786510925539 0.38783145198114 0.88207345338075 
C28   C     0.20210761490888 0.40684700463381 0.93460317334985 
C29   C     0.38783988846758 0.41985477208968 0.99488134449471 
C30   C     0.21896582599076 0.42611871090416 0.01260687689246 
H1    H     0.84980115143868 0.49059309049542 0.60412146443056 
H2    H     0.96374690909165 0.59023293801610 0.66355736399513 
H3    H     0.20038228622669 0.66385604227429 0.81995100304379 
H4    H     0.10565756228838 0.57956368691918 0.73409576248040 
H5    H     0.43796844120998 0.70628386827589 0.83759278495880 
H6    H     0.16938883709707 0.47422923068826 0.61470455949068 
H7    H     0.75458820773560 0.69529829128521 0.78815152735188 
H8    H     0.37836955466068 0.37005936668191 0.49206818582688 
H9    H     0.64971520751031 0.28522886196106 0.41909890585346 
H10   H     0.92394914388515 0.24539974570112 0.40991210924854 
H11   H     0.09995393516568 0.24848636905889 0.47921776312147 
H12   H     0.33687861641883 0.36748127888841 0.78198387379444 
H13   H     0.12318188085770 0.28596306995389 0.61795823936288 
H14   H     0.99390774255420 0.34564032681232 0.78128697100578 
H15   H     0.72619824175694 0.40097520420665 0.94447227372256 
H16   H     0.06755632862520 0.40819071173126 0.94973080034175 
H17   H     0.40168715994228 0.43088364611391 0.05569047593079 
H18   H     0.09842781968120 0.44375609226949 0.08686320494864 
