data_stdin
_audit_creation_method 'critic2'
_audit_creation_date 2023-8-11
_chemical_formula_sum 'C30 H18'
_cell_formula_units_Z 4
_cell_length_a        12.6391671250
_cell_length_b         9.5417829102
_cell_length_c        19.9083319866
_cell_angle_alpha        90.0002
_cell_angle_beta        57.1670
_cell_angle_gamma        90.0004
_cell_volume          2017.408018
_space_group_crystal_system monoclinic
_space_group_IT_number 14
_space_group_name_H-M_alt 'P2_1/c'
_space_group_name_Hall '-P 2ybc'
loop_
_symmetry_equiv_pos_site_id
_symmetry_equiv_pos_as_xyz
 1 'x,y,z'
 2 '-x,-y,-z'
 3 '-x,-1/2+y,-1/2-z'
 4 'x,-1/2-y,-1/2+z'
loop_
_atom_site_label
_atom_site_type_symbol
_atom_site_fract_x
_atom_site_fract_y
_atom_site_fract_z
C1    C     0.16421384009843 0.31086563173174 0.75287121122846 
C2    C     0.03905995376448 0.29529218318787 0.82433481784724 
C3    C     0.24427133922916 0.19572529765341 0.71113420453561 
C4    C     0.99443290798899 0.17105553553281 0.87372591214925 
C5    C     0.07399817591075 0.06707610533970 0.87832654666099 
C6    C     0.19627793031966 0.09360904939867 0.86566335884945 
C7    C     0.20584998221815 0.44694911613945 0.71791812848002 
C8    C     0.95323284613124 0.40822803831399 0.84448497714545 
C9    C     0.36177454902446 0.21426610707624 0.64198258274351 
C10   C     0.86169937574175 0.14694747916731 0.92068678051129 
C11   C     0.02610856436539 0.92751953080099 0.89838417818883 
C12   C     0.23730621480670 0.22856962825748 0.87703634761973 
C13   C     0.27879015551056 0.97765241140773 0.84657298673078 
C14   C     0.12142906451677 0.56302826440091 0.74960378425366 
C15   C     0.99780590749863 0.54218163453161 0.80782690199299 
C16   C     0.32793922876593 0.46361151988109 0.64860338074010 
C17   C     0.82219434011602 0.38788485609487 0.90116410632528 
C18   C     0.40557601225002 0.34977345855518 0.61129572991245 
C19   C     0.77756818632619 0.25844389413690 0.93408500240138 
C20   C     0.81424186827913 0.01093568449439 0.95166010571169 
C21   C     0.89529170648073 0.90184221683886 0.93397385632667 
C22   C     0.36592688951962 0.24685551537872 0.85259518430106 
C23   C     0.10897529158689 0.81416940285367 0.88415997313625 
C24   C     0.15351524942197 0.34082578121600 0.91914743142732 
C25   C     0.23371588397445 0.83819331555382 0.85360340571900 
C26   C     0.40629345235998 0.99967228174471 0.82261985873448 
C27   C     0.45025669101119 0.13073801387249 0.82170954479926 
C28   C     0.19487510825018 0.46620187976187 0.93174125608409 
C29   C     0.40687952335409 0.37787760475553 0.86392229865009 
C30   C     0.32341358215675 0.48683897918468 0.90199810440728 
H1    H     0.21156393729323 0.09012200075106 0.73273696422123 
H2    H     0.42002230739790 0.12304302553933 0.61096586104646 
H3    H     0.15509164429216 0.66648228462184 0.72349217567078 
H4    H     0.93069790809292 0.62823191159617 0.82761201083210 
H5    H     0.35812052683388 0.56853138559834 0.62379882599500 
H6    H     0.75858811692363 0.47600788452097 0.91528117746647 
H7    H     0.49878321170570 0.36486981854934 0.55762005888501 
H8    H     0.67670412707246 0.23923093372960 0.97270766941963 
H9    H     0.71295605794129 0.99359667990827 0.98617221134810 
H10   H     0.86043653289007 0.79518137286003 0.95136566855086 
H11   H     0.07166807376506 0.70799945658342 0.89574090196136 
H12   H     0.05371400010675 0.32613885310470 0.94436007484213 
H13   H     0.29872864320930 0.75125473375936 0.83868645588956 
H14   H     0.46854460902304 0.90934435312068 0.80497262473413 
H15   H     0.54853478838376 0.14660214257242 0.80157516827885 
H16   H     0.12762989564113 0.54899718108139 0.96607124727460 
H17   H     0.50601257869814 0.39007418508829 0.84279735034861 
H18   H     0.35552074322664 0.58683019356525 0.91092522138320 
