data_stdin
_audit_creation_method 'critic2'
_audit_creation_date 2023-8-11
_chemical_formula_sum 'C30 H18'
_cell_formula_units_Z 8
_cell_length_a        21.2302270049
_cell_length_b         8.8799057163
_cell_length_c        20.4544717342
_cell_angle_alpha        90.0004
_cell_angle_beta        87.8366
_cell_angle_gamma        90.0006
_cell_volume          3853.377979
_space_group_crystal_system monoclinic
_space_group_IT_number 15
_space_group_name_H-M_alt 'C2/c'
_space_group_name_Hall '-C 2yc'
loop_
_symmetry_equiv_pos_site_id
_symmetry_equiv_pos_as_xyz
 1 'x,y,z'
 2 '-x,-y,-z'
 3 '-x,y,-1/2-z'
 4 'x,-y,-1/2+z'
 5 '-1/2+x,-1/2+y,z'
 6 '-1/2-x,-1/2-y,-z'
 7 '-1/2-x,-1/2+y,-1/2-z'
 8 '-1/2+x,-1/2-y,-1/2+z'
loop_
_atom_site_label
_atom_site_type_symbol
_atom_site_fract_x
_atom_site_fract_y
_atom_site_fract_z
C1    C     0.10726767775833 0.05126840599306 0.77234370338881 
C2    C     0.07263038189723 0.16579710566491 0.80900564143591 
C3    C     0.08467749075600 0.90238036120612 0.76523110031584 
C4    C     0.02235226517497 0.13476381122069 0.85667551738696 
C5    C     0.01559400281004 0.99776148878264 0.89475077456348 
C6    C     0.06679109929041 0.89922634491642 0.91181471838844 
C7    C     0.16398793993600 0.09180591741457 0.73656612676666 
C8    C     0.08757512881419 0.31887769835038 0.79522366874593 
C9    C     0.11795347340428 0.79708405154474 0.72807647890282 
C10   C     0.97580279415700 0.24881305173383 0.86738735446454 
C11   C     0.95362824166115 0.95937255166457 0.91873103092250 
C12   C     0.13217202298995 0.94572251509045 0.91570119818737 
C13   C     0.05187175595544 0.74930877511976 0.93129804714803 
C14   C     0.18288647492940 0.24578370561353 0.73322345899211 
C15   C     0.14428975714805 0.35554724883263 0.75894103911560 
C16   C     0.19868825861165 0.97989979758614 0.70158569112176 
C17   C     0.04519620050001 0.43477522941810 0.81638963726501 
C18   C     0.17652623748427 0.83410965719904 0.69765080670356 
C19   C     0.98856271562902 0.39877920083426 0.84639931588650 
C20   C     0.91712504431806 0.21269979269482 0.89929123110510 
C21   C     0.90465909284262 0.06874055163702 0.91943730003598 
C22   C     0.18000771258105 0.83380931972804 0.92278350366436 
C23   C     0.94100878599854 0.81192756134636 0.94306318738791 
C24   C     0.15099652974023 0.09841112595347 0.91991226388799 
C25   C     0.98808822685991 0.70738480573248 0.94552839054586 
C26   C     0.10073967187513 0.64042402426311 0.93810135589935 
C27   C     0.16275606280170 0.67928702692238 0.93050149338698 
C28   C     0.21334979668820 0.13896729443934 0.92654163627923 
C29   C     0.24381370258869 0.87785736462166 0.92723030778862 
C30   C     0.26070300417101 0.02800049938288 0.92863317018803 
H1    H     0.03944021009169 0.87198792650266 0.78803050533151 
H2    H     0.09823161817694 0.68516206631426 0.72149028404467 
H3    H     0.22679398039285 0.27517071922800 0.70705502774358 
H4    H     0.15655928037785 0.47394212936243 0.75261309649420 
H5    H     0.24291172616323 0.01197221178282 0.67654548143718 
H6    H     0.05716678356537 0.55135445609295 0.80526603789572 
H7    H     0.20368565303687 0.74905893113753 0.67060719530571 
H8    H     0.95311465968732 0.48506913064813 0.85665307184029 
H9    H     0.88179191835886 0.30100908616913 0.90473519681913 
H10   H     0.85834456482246 0.03693156214257 0.93950403927235 
H11   H     0.89273809304718 0.78446275715568 0.95857114469854 
H12   H     0.11535603045563 0.18585186274126 0.91984670552272 
H13   H     0.97826841104402 0.59236335674616 0.96127857354885 
H14   H     0.08705934589500 0.52442760624825 0.94864575038428 
H15   H     0.19985852938184 0.59544880496980 0.93474934059422 
H16   H     0.22566123006282 0.25760005800424 0.93086785047145 
H17   H     0.27914636086856 0.79000661628829 0.93204423997066 
H18   H     0.30991118068709 0.06021347868043 0.93304551698453 
