data_stdin
_audit_creation_method 'critic2'
_audit_creation_date 2023-8-11
_chemical_formula_sum 'C30 H18'
_cell_formula_units_Z 2
_cell_length_a         9.1574365464
_cell_length_b        12.6512259500
_cell_length_c         9.5641237917
_cell_angle_alpha        90.0000
_cell_angle_beta        63.1315
_cell_angle_gamma        90.0000
_cell_volume           988.414552
_space_group_crystal_system monoclinic
_space_group_IT_number 4
_space_group_name_H-M_alt 'P2_1'
_space_group_name_Hall 'P 2yb'
loop_
_symmetry_equiv_pos_site_id
_symmetry_equiv_pos_as_xyz
 1 'x,y,z'
 2 '-x,-1/2+y,-z'
loop_
_atom_site_label
_atom_site_type_symbol
_atom_site_fract_x
_atom_site_fract_y
_atom_site_fract_z
C1    C     0.84443855170607 0.99861526702944 0.58519403290990 
C2    C     0.80811511784805 0.96044281528300 0.46130497392072 
C3    C     0.00535759109419 0.02016791249091 0.56218536537300 
C4    C     0.92664860097229 0.91258027500901 0.31729475738555 
C5    C     0.07505255121400 0.85889830346565 0.29705574287234 
C6    C     0.09917015877165 0.80678139119618 0.41994511014308 
C7    C     0.71231310064661 0.02496163119431 0.73427737171713 
C8    C     0.64581548572664 0.97470268048852 0.48104454146612 
C9    C     0.03488242037950 0.06045262913169 0.68138003599938 
C10   C     0.89446039765028 0.91740709928014 0.18446516749736 
C11   C     0.20644235040142 0.85492850271561 0.14180770761311 
C12   C     0.96848897682267 0.76603145332096 0.56416777983643 
C13   C     0.26276154905751 0.78735859783130 0.39341456335880 
C14   C     0.54774570332779 0.01889412354914 0.75630590035949 
C15   C     0.51666612617883 0.99987715297873 0.63184665825523 
C16   C     0.74602523054100 0.06397801810839 0.85523640342921 
C17   C     0.61141482175415 0.96443673136737 0.35080485722398 
C18   C     0.90487017382907 0.08153368300200 0.82995728467369 
C19   C     0.73485575114245 0.94349181547430 0.20477393253798 
C20   C     0.02136066580647 0.89584675841280 0.03145669186499 
C21   C     0.17627821439829 0.87431530826738 0.01047643796214 
C22   C     0.00579733758321 0.72976041426337 0.68625046686951 
C23   C     0.36686425461588 0.82712835459642 0.11713440651038 
C24   C     0.80663141497921 0.74973343037915 0.58536095994463 
C25   C     0.39537522889145 0.80032508498151 0.24101163607227 
C26   C     0.29552832442257 0.75148620415699 0.51800612161792 
C27   C     0.17137437576404 0.72789632113075 0.66184909370077 
C28   C     0.68593788690128 0.70800413770424 0.72243473751688 
C29   C     0.87949803076074 0.68918986182328 0.82706515089665 
C30   C     0.72144999479384 0.67961492312035 0.84624628229388 
H1    H     0.10727298406109 0.00940808018482 0.44671006918628 
H2    H     0.15976668508279 0.07925094388570 0.65835220849154 
H3    H     0.44792978263233 0.03454430729071 0.87202493045536 
H4    H     0.39194907946849 0.00188061629202 0.64533119123788 
H5    H     0.64356418876358 0.08373293794622 0.96761778074966 
H6    H     0.48647941881608 0.97703141623244 0.36858335886048 
H7    H     0.92905355539946 0.11418358267859 0.92276829150746 
H8    H     0.71259135234316 0.94250551474062 0.10219577174636 
H9    H     0.99394218992455 0.90090678268692 0.93212021139082 
H10   H     0.27749402690146 0.86594530815187 0.89329653888715 
H11   H     0.46613481528037 0.82877881707789 0.99810328389797 
H12   H     0.77747052726713 0.76744201270620 0.48992465700860 
H13   H     0.51858694329317 0.78264404331872 0.22407507081087 
H14   H     0.42293036923729 0.74227621032893 0.49433157094288 
H15   H     0.19680960757741 0.70047163835648 0.75663055811304 
H16   H     0.56334098689157 0.69567395192193 0.73347131437700 
H17   H     0.91068659606536 0.66281276974066 0.91873753126623 
H18   H     0.62553568618352 0.64837615373883 0.95484162532684 
