data_stdin
_audit_creation_method 'critic2'
_audit_creation_date 2023-8-11
_chemical_formula_sum 'C30 H18'
_cell_formula_units_Z 8
_cell_length_a        11.3744531010
_cell_length_b        15.2546122400
_cell_length_c        22.3766609902
_cell_angle_alpha        90.0000
_cell_angle_beta        89.9990
_cell_angle_gamma        90.0000
_cell_volume          3882.638702
_space_group_crystal_system orthorhombic
_space_group_IT_number 61
_space_group_name_H-M_alt 'Pbca'
_space_group_name_Hall '-P 2ac 2ab'
loop_
_symmetry_equiv_pos_site_id
_symmetry_equiv_pos_as_xyz
 1 'x,y,z'
 2 '-x,-y,-z'
 3 '-1/2-x,-y,-1/2+z'
 4 '-1/2+x,y,-1/2-z'
 5 '-1/2+x,-1/2-y,-z'
 6 '-1/2-x,-1/2+y,z'
 7 '-x,-1/2+y,-1/2-z'
 8 'x,-1/2-y,-1/2+z'
loop_
_atom_site_label
_atom_site_type_symbol
_atom_site_fract_x
_atom_site_fract_y
_atom_site_fract_z
C1    C     0.96027461039186 0.44543571883191 0.87496660904483 
C2    C     0.99913637932521 0.39892692509553 0.92791205713150 
C3    C     0.85234643499718 0.49142957860469 0.87204400041482 
C4    C     0.92356583018156 0.37512169226189 0.97729944831464 
C5    C     0.79717991965493 0.36406158113130 0.97384714402049 
C6    C     0.73340642759263 0.33936113836654 0.92063699105608 
C7    C     0.03693898618629 0.45168013629820 0.82442465695061 
C8    C     0.12066612038520 0.37818905880221 0.93240860100592 
C9    C     0.81711826398416 0.53466873925237 0.82085037630838 
C10   C     0.97713735313679 0.36139291295972 0.03413443491340 
C11   C     0.73088908623729 0.37780175710601 0.02720385728361 
C12   C     0.78458991638628 0.29122418068350 0.87115567697978 
C13   C     0.61190582588305 0.36080059839775 0.91727510780771 
C14   C     0.15395712247943 0.41842315691692 0.82834429653727 
C15   C     0.19497039219940 0.38615536381923 0.88130831610508 
C16   C     0.99792385195448 0.49449341557727 0.77181776206325 
C17   C     0.16900491613714 0.35014575196867 0.98790951570272 
C18   C     0.88889163219992 0.53422414721349 0.76955792617934 
C19   C     0.10066794003527 0.34812652417692 0.03810701076127 
C20   C     0.90717390735619 0.36169576575053 0.08691247745826 
C21   C     0.78888391996690 0.37715335127729 0.08360119527049 
C22   C     0.72217957189125 0.28636127139097 0.81571099628891 
C23   C     0.60731268391463 0.39191627429697 0.02338554786311 
C24   C     0.89098866242234 0.24331545405920 0.87575465137304 
C25   C     0.55116579850499 0.38987903225116 0.96930569594718 
C26   C     0.55080692810602 0.35169457906484 0.86191657131775 
C27   C     0.60518337653323 0.31952282259368 0.81212170431896 
C28   C     0.93934438780439 0.20158014167111 0.82671596544445 
C29   C     0.77522533411530 0.24544175262834 0.76565919074045 
C30   C     0.88338356736615 0.20502123287959 0.77053866370285 
H1    H     0.79743707577628 0.49537683828866 0.91153862145549 
H2    H     0.73469260735629 0.57086591554707 0.82068004422927 
H3    H     0.21100037637629 0.42273273200565 0.78932802504664 
H4    H     0.28571847606826 0.36431802691036 0.88566364702659 
H5    H     0.05690475404490 0.49661997959638 0.73348989609817 
H6    H     0.26217682781785 0.33385526940843 0.99008489895480 
H7    H     0.85943832029407 0.56737092551691 0.72912119445618 
H8    H     0.13857116954843 0.33402875786253 0.08164455162064 
H9    H     0.95145363552852 0.35431778267230 0.12974881078924 
H10   H     0.73664877595004 0.38620947130803 0.12394551422001 
H11   H     0.55897443592734 0.40719817597576 0.06413821143370 
H12   H     0.93524127518951 0.23867141657883 0.91863190663640 
H13   H     0.45825755118295 0.40650801374004 0.96588265606853 
H14   H     0.45927068231737 0.37232368006787 0.85971249556071 
H15   H     0.55832848991424 0.31547933587325 0.76980904554973 
H16   H     0.02147369333437 0.16556721596400 0.83168995812035 
H17   H     0.72776550173030 0.24554597535196 0.72333864760271 
H18   H     0.92362701856953 0.17326092681993 0.73211703306958 
