data_stdin
_audit_creation_method 'critic2'
_audit_creation_date 2023-8-11
_chemical_formula_sum 'C30 H18'
_cell_formula_units_Z 2
_cell_length_a        11.5200130974
_cell_length_b        11.8725681237
_cell_length_c         8.2098869580
_cell_angle_alpha       102.6076
_cell_angle_beta       109.2452
_cell_angle_gamma        95.9807
_cell_volume          1015.490002
_space_group_crystal_system triclinic
_space_group_IT_number 2
_space_group_name_H-M_alt 'P-1'
_space_group_name_Hall '-P 1'
loop_
_symmetry_equiv_pos_site_id
_symmetry_equiv_pos_as_xyz
 1 'x,y,z'
 2 '-x,-y,-z'
loop_
_atom_site_label
_atom_site_type_symbol
_atom_site_fract_x
_atom_site_fract_y
_atom_site_fract_z
C1    C     0.20376855435316 0.90287446100748 0.43073328584167 
C2    C     0.14320446686477 0.89657055978345 0.55880212682371 
C3    C     0.15692961751179 0.82831488442859 0.25364432900352 
C4    C     0.05092725847604 0.79785886653338 0.54147068276668 
C5    C     0.04038862628180 0.67741163726635 0.44367164121975 
C6    C     0.14222588354096 0.62711516592645 0.41034764263028 
C7    C     0.30656356616349 0.99695253060126 0.47500066427484 
C8    C     0.16949957796515 0.99849095956494 0.70342269568589 
C9    C     0.21121392541276 0.84218128370348 0.13042651738448 
C10   C     0.96132625420500 0.82125305109016 0.62403079820072 
C11   C     0.92004082533420 0.60245844915780 0.37550073405506 
C12   C     0.27376300674440 0.66894272106009 0.52156404627424 
C13   C     0.11176594934281 0.52501219835662 0.26508024660985 
C14   C     0.34421981512809 0.08678022557521 0.63943094986560 
C15   C     0.27349151127514 0.09032522546357 0.74436131815949 
C16   C     0.36370732676411 0.00666259717666 0.34882017802863 
C17   C     0.08954906902923 0.01114231439700 0.80376211297406 
C18   C     0.31718554346991 0.93081556771161 0.17883068591599 
C19   C     0.98349122447835 0.92899635082531 0.75630620507518 
C20   C     0.84881475712867 0.73778113832834 0.57138611421369 
C21   C     0.82490685539090 0.63559296316656 0.44058834532300 
C22   C     0.36687702108277 0.62653546020618 0.45738174761879 
C23   C     0.89548594620272 0.49418367640858 0.24301760809289 
C24   C     0.31552839896920 0.74133328789578 0.69954394666339 
C25   C     0.98650807211646 0.46101259932192 0.18076147169428 
C26   C     0.20693495534281 0.48514821202521 0.20429906247106 
C27   C     0.32963244550695 0.53854959112946 0.29093776684539 
C28   C     0.44147799909397 0.77483128898485 0.80526935852698 
C29   C     0.49529559078748 0.66518394920543 0.56557480606338 
C30   C     0.53263090245312 0.73830266592965 0.73690220671362 
H1    H     0.07296582457271 0.76195398609128 0.21166108733770 
H2    H     0.16964117497782 0.78622051894989 0.99367488479032 
H3    H     0.42443862218720 0.15619920530100 0.67183152177386 
H4    H     0.29365514015261 0.16498169103868 0.86019150420439 
H5    H     0.44320537983023 0.07771751220774 0.38693804203554 
H6    H     0.10973204327878 0.09136909875256 0.91077501874160 
H7    H     0.35953041959363 0.94213719265752 0.08142843158460 
H8    H     0.91497083941745 0.94451880031273 0.81956267249071 
H9    H     0.78017337700070 0.76011371503642 0.63176869950663 
H10   H     0.73558086225000 0.57464106309609 0.39048486008066 
H11   H     0.80167229523545 0.44058379952380 0.18860103896657 
H12   H     0.24682078502386 0.76911021034705 0.75578624872629 
H13   H     0.96611934792906 0.38271501410514 0.07078721678718 
H14   H     0.17850962322758 0.41147696674908 0.08495543866913 
H15   H     0.40153099706487 0.50938258325714 0.24193413018352 
H16   H     0.47011205017808 0.82900614360082 0.94248311705794 
H17   H     0.56439420429430 0.63239519925846 0.51323409390361 
H18   H     0.63181461135180 0.76622229036980 0.81931901430213 
