data_stdin
_audit_creation_method 'critic2'
_audit_creation_date 2023-8-11
_chemical_formula_sum 'C30 H18'
_cell_formula_units_Z 4
_cell_length_a        15.9336572400
_cell_length_b        13.0132820500
_cell_length_c         9.6111737711
_cell_angle_alpha        90.0000
_cell_angle_beta        90.0010
_cell_angle_gamma        90.0000
_cell_volume          1992.868959
_space_group_crystal_system orthorhombic
_space_group_IT_number 19
_space_group_name_H-M_alt 'P2_12_12_1'
_space_group_name_Hall 'P 2ac 2ab'
loop_
_symmetry_equiv_pos_site_id
_symmetry_equiv_pos_as_xyz
 1 'x,y,z'
 2 '-1/2+x,-1/2-y,-z'
 3 '-1/2-x,-y,-1/2+z'
 4 '-x,-1/2+y,-1/2-z'
loop_
_atom_site_label
_atom_site_type_symbol
_atom_site_fract_x
_atom_site_fract_y
_atom_site_fract_z
C1    C     0.93942272672163 0.22760839807116 0.15346859101400 
C2    C     0.86847052190869 0.25980448793766 0.23718128153409 
C3    C     0.02083098379062 0.21267599337426 0.20893331341417 
C4    C     0.87555782966790 0.30798877303773 0.37215754661343 
C5    C     0.94712186053550 0.36707125781487 0.41943813078832 
C6    C     0.00517978329667 0.42104506760207 0.32970466538754 
C7    C     0.92585785676633 0.19941296550188 0.01141985373351 
C8    C     0.78676176461717 0.23732936006306 0.18615538492785 
C9    C     0.08616770958384 0.17801949216275 0.12685666880192 
C10   C     0.80682767621484 0.29663984177360 0.46628043985157 
C11   C     0.96056361363147 0.37378368779516 0.56596779623968 
C12   C     0.98430160390825 0.46019368832683 0.19283390513259 
C13   C     0.08631268727822 0.44371873405089 0.38294550390813 
C14   C     0.84237112249089 0.19337397941756 0.95827550005000 
C15   C     0.77522744653305 0.20624932943973 0.04481799105551 
C16   C     0.99451529089822 0.16816186454965 0.92825172903806 
C17   C     0.71647865045403 0.24227223886609 0.27734710944719 
C18   C     0.07372962705665 0.15735124227985 0.98453595378975 
C19   C     0.72732657569999 0.26388573222625 0.41549999420816 
C20   C     0.81801082059715 0.31826207220226 0.61035701531233 
C21   C     0.89472229764369 0.34819821911348 0.66003865568185 
C22   C     0.04966287955475 0.49969898721964 0.10571720594413 
C23   C     0.03957767191483 0.40747764702722 0.61781484775165 
C24   C     0.90054670641036 0.47181727777756 0.14588615451076 
C25   C     0.10251052380095 0.43401530479002 0.52801762108374 
C26   C     0.15056007734721 0.48055271992754 0.29219199553142 
C27   C     0.13371137144557 0.50384646443259 0.15655800312621 
C28   C     0.88224859634477 0.51323409490302 0.01707697171650 
C29   C     0.02946853840859 0.54128580444768 0.97361431613988 
C30   C     0.94724343460887 0.54698371589394 0.92880605858152 
H1    H     0.03132844533097 0.22414280286657 0.31943349144020 
H2    H     0.14731099708647 0.16385410238535 0.17360681610870 
H3    H     0.83327071943954 0.17155516504200 0.84985194414388 
H4    H     0.71154877813167 0.19288699982447 0.00754646681365 
H5    H     0.98239144114198 0.14854941644899 0.81998315871517 
H6    H     0.65470866416464 0.22267711753308 0.23681331682648 
H7    H     0.12559885215065 0.12937805333983 0.92124766785033 
H8    H     0.67492059441070 0.25883489443316 0.48786037268741 
H9    H     0.76510276561841 0.30655730657715 0.68045176469008 
H10   H     0.90565623074214 0.35725680217262 0.77124874119953 
H11   H     0.04874490401637 0.40966314364894 0.73009416529109 
H12   H     0.84915747328703 0.45053495000594 0.21407732992068 
H13   H     0.16453215736056 0.45437519100171 0.56661506518500 
H14   H     0.21308149635460 0.49255621988628 0.33511439391676 
H15   H     0.18274089503778 0.53341517737658 0.08837880685672 
H16   H     0.81709599241933 0.52189616660164 0.98496031835068 
H17   H     0.08027185962410 0.57199448731308 0.90986834908298 
H18   H     0.93191124746872 0.57965862857802 0.82775928048010 
