data_stdin
_audit_creation_method 'critic2'
_audit_creation_date 2023-8-11
_chemical_formula_sum 'C30 H18'
_cell_formula_units_Z 8
_cell_length_a        14.6126874422
_cell_length_b        25.8219786419
_cell_length_c        10.7349999830
_cell_angle_alpha        89.9998
_cell_angle_beta        89.9999
_cell_angle_gamma        90.0000
_cell_volume          4050.621474
_space_group_crystal_system orthorhombic
_space_group_IT_number 61
_space_group_name_H-M_alt 'Pbca'
_space_group_name_Hall '-P 2ac 2ab'
loop_
_symmetry_equiv_pos_site_id
_symmetry_equiv_pos_as_xyz
 1 'x,y,z'
 2 '-x,-y,-z'
 3 '-x,-1/2+y,-1/2-z'
 4 'x,-1/2-y,-1/2+z'
 5 '-1/2-x,-y,-1/2+z'
 6 '-1/2+x,y,-1/2-z'
 7 '-1/2+x,-1/2-y,-z'
 8 '-1/2-x,-1/2+y,z'
loop_
_atom_site_label
_atom_site_type_symbol
_atom_site_fract_x
_atom_site_fract_y
_atom_site_fract_z
C1    C     0.46732750375093 0.36585945030091 0.72684852132966 
C2    C     0.41958399261000 0.31731690557319 0.74664019888813 
C3    C     0.55851839119477 0.37444078508553 0.76666056143584 
C4    C     0.44749270245945 0.27786845135706 0.83465190588344 
C5    C     0.49984419499250 0.28677569502242 0.94737414788248 
C6    C     0.50274402114110 0.33520432261319 0.01481970114583 
C7    C     0.42481685541505 0.40569136556405 0.65413201171793 
C8    C     0.34303394976512 0.30680788986415 0.66889234652607 
C9    C     0.60315806040722 0.42070004331011 0.74392907092930 
C10   C     0.42099184206749 0.22579489468936 0.80859133242228 
C11   C     0.55072686330623 0.24426830954309 0.99702965403174 
C12   C     0.43152677034953 0.37424383195087 0.01061771780837 
C13   C     0.57735339485110 0.34413398556135 0.09696336108148 
C14   C     0.33920715829911 0.39583187014953 0.59480870712393 
C15   C     0.30235588232121 0.34726368036806 0.59710019077513 
C16   C     0.47097778917474 0.45326466090489 0.63484835828022 
C17   C     0.30782232246895 0.25554215691552 0.65965894479806 
C18   C     0.55851167330483 0.46104734600015 0.67959352095960 
C19   C     0.35047598125890 0.21579004549757 0.72053743770303 
C20   C     0.46517899913121 0.18386250836337 0.86996614009635 
C21   C     0.53324344888011 0.19301611426195 0.95442902909800 
C22   C     0.44955634048588 0.42468375081431 0.05994038453957 
C23   C     0.61803708083133 0.25322390140045 0.09058119987699 
C24   C     0.34095975336553 0.36341605183923 0.97137282815917 
C25   C     0.63506167480123 0.30228925793072 0.13250575808251 
C26   C     0.59295893868891 0.39472585147571 0.14667970107223 
C27   C     0.53394238084796 0.43455415501131 0.12290456967751 
C28   C     0.27372648496973 0.40102989314798 0.97232069282687 
C29   C     0.38096629411355 0.46341072828270 0.05353869095396 
C30   C     0.29445079736100 0.45201693803674 0.00964423018529 
H1    H     0.59523929659741 0.34353211576835 0.81353974013438 
H2    H     0.67376723185496 0.42537086963352 0.77435994032731 
H3    H     0.30684371613132 0.42663791281372 0.54106613481648 
H4    H     0.24127243978703 0.33823486511775 0.54319859927688 
H5    H     0.43668911144669 0.48353826836825 0.58156746211542 
H6    H     0.24994481680622 0.24852586557865 0.59793833210090 
H7    H     0.59321010657238 0.49785325973758 0.66429332846133 
H8    H     0.33046439044132 0.17574545840228 0.70435786625325 
H9    H     0.44613791615645 0.14449115901521 0.84450958574951 
H10   H     0.57155013544427 0.16114715181575 0.99551912243401 
H11   H     0.65714256966883 0.22046096500004 0.12621796805874 
H12   H     0.32326786887011 0.32424677772695 0.94367655512733 
H13   H     0.68999951508590 0.30948330001638 0.19853523610010 
H14   H     0.65340736405005 0.40078986001541 0.20449891016168 
H15   H     0.54735302304472 0.47340671949773 0.15783363362985 
H16   H     0.20445901409825 0.39123680087435 0.94365305388323 
H17   H     0.39744534135973 0.50212836582448 0.08670125695914 
H18   H     0.24175624838581 0.48184396381568 0.00664996956286 
