data_stdin
_audit_creation_method 'critic2'
_audit_creation_date 2023-8-11
_chemical_formula_sum 'C30 H18'
_cell_formula_units_Z 2
_cell_length_a         9.2884720783
_cell_length_b        11.2214349122
_cell_length_c        11.0001015165
_cell_angle_alpha        91.3814
_cell_angle_beta        71.1178
_cell_angle_gamma        67.1987
_cell_volume           985.261084
_space_group_crystal_system triclinic
_space_group_IT_number 2
_space_group_name_H-M_alt 'P-1'
_space_group_name_Hall '-P 1'
loop_
_symmetry_equiv_pos_site_id
_symmetry_equiv_pos_as_xyz
 1 'x,y,z'
 2 '-x,-y,-z'
loop_
_atom_site_label
_atom_site_type_symbol
_atom_site_fract_x
_atom_site_fract_y
_atom_site_fract_z
C1    C     0.60893235083775 0.37591651101878 0.24492595522829 
C2    C     0.72947471576631 0.24283094097680 0.23462346031306 
C3    C     0.47893952354208 0.45100398480590 0.36339541543099 
C4    C     0.70956836803909 0.15983832589808 0.33185340338800 
C5    C     0.55138627826067 0.17176474283478 0.42621461856116 
C6    C     0.39180852096385 0.22319461611744 0.40842150052095 
C7    C     0.62899394524721 0.44040607053243 0.13382032298052 
C8    C     0.88116065920543 0.19338091774734 0.12393806611138 
C9    C     0.36954850641393 0.57896674808957 0.37046511383632 
C10   C     0.85834439598297 0.05745129035805 0.33606048396421 
C11   C     0.55451901987324 0.12507900341807 0.54542940743510 
C12   C     0.37240421856586 0.22425138925780 0.28261818190411 
C13   C     0.24347180492562 0.26713830696191 0.52171517799302 
C14   C     0.77269310374386 0.37765063133377 0.01747066187467 
C15   C     0.89721570044509 0.26075785945593 0.01519110515565 
C16   C     0.51042104814078 0.56905627867636 0.14179729411081 
C17   C     0.01984798109645 0.07766779841630 0.12153853912866 
C18   C     0.38172026803185 0.63743540236214 0.25795877453245 
C19   C     0.01195792372417 0.01709229240049 0.22819404294822 
C20   C     0.85340962242651 0.99619823305324 0.44802177628974 
C21   C     0.70837436318247 0.03824212542732 0.55447078730537 
C22   C     0.20931556849329 0.29345365825033 0.27673007998644 
C23   C     0.40292847260674 0.16276020329600 0.65471330057893 
C24   C     0.50400488398351 0.15052280822611 0.16409289795567 
C25   C     0.25297981759825 0.24031132332724 0.64554449018211 
C26   C     0.08291595052087 0.33192849262938 0.51192187555448 
C27   C     0.06645516841833 0.34931799857982 0.39401503974629 
C28   C     0.48036486371213 0.15465506929197 0.04614784026373 
C29   C     0.18921721177915 0.29995564038338 0.15448615431516 
C30   C     0.32279119861001 0.23327105163292 0.04037735709628 
H1    H     0.46788667945352 0.40922564918619 0.45202857233605 
H2    H     0.27527694049604 0.63552752678751 0.46418455947837 
H3    H     0.78337218009254 0.42780870266704 0.93357039122758 
H4    H     0.01196813975619 0.21507000856751 0.92970179249236 
H5    H     0.52530060219058 0.61411840569004 0.05474338088864 
H6    H     0.13436088994832 0.04278571910653 0.03582655532111 
H7    H     0.29308768748425 0.73729179321969 0.26366907777667 
H8    H     0.12163285522245 0.93491551849980 0.23142170097860 
H9    H     0.96812554445595 0.91892088877041 0.44949945008702 
H10   H     0.70637936814983 0.99864811869449 0.64415501021995 
H11   H     0.41082188711761 0.12899300464435 0.74531003657927 
H12   H     0.62580521729820 0.08754014423998 0.16615040558642 
H13   H     0.13680416350001 0.27506761535510 0.72999224082491 
H14   H     0.97260329331773 0.36863818205452 0.60129695098326 
H15   H     0.94387485426841 0.40225773152223 0.38734022359139 
H16   H     0.58385060139869 0.09522411898361 0.95741579816983 
H17   H     0.06447055560026 0.35555471855998 0.15261811323962 
H18   H     0.30560616622661 0.23950505578993 0.94706489034041 
