data_stdin
_audit_creation_method 'critic2'
_audit_creation_date 2023-8-11
_chemical_formula_sum 'C46 H26'
_cell_formula_units_Z 2
_cell_length_a        11.0657845232
_cell_length_b        14.1699812100
_cell_length_c        10.1905634815
_cell_angle_alpha        90.0000
_cell_angle_beta        63.3084
_cell_angle_gamma        90.0000
_cell_volume          1427.623538
_space_group_crystal_system monoclinic
_space_group_IT_number 4
_space_group_name_H-M_alt 'P2_1'
_space_group_name_Hall 'P 2yb'
loop_
_symmetry_equiv_pos_site_id
_symmetry_equiv_pos_as_xyz
 1 'x,y,z'
 2 '-x,-1/2+y,-z'
loop_
_atom_site_label
_atom_site_type_symbol
_atom_site_fract_x
_atom_site_fract_y
_atom_site_fract_z
C1    C     0.31603035648780 0.99864557830421 0.62465413817358 
C2    C     0.41324515346328 0.07311528508591 0.55775824308522 
C3    C     0.26719658138234 0.93720175253186 0.54556620756889 
C4    C     0.43092330117359 0.12321850659455 0.42701927287128 
C5    C     0.34072240771932 0.91499659053401 0.39060093401115 
C6    C     0.32543575076028 0.13625206323703 0.38186616979041 
C7    C     0.48610845630508 0.92066617351877 0.30382418889396 
C8    C     0.18159418592803 0.13213839561228 0.47852777579537 
C9    C     0.26849383196452 0.98271289274459 0.77766005312570 
C10   C     0.49461665149417 0.10082547943174 0.62649605447671 
C11   C     0.13968712079674 0.89257512044718 0.62784337994405 
C12   C     0.55894684195922 0.16604557115017 0.34138742181081 
C13   C     0.26364295547462 0.88111768001403 0.31936324672317 
C14   C     0.36673001327181 0.15863583457972 0.23108216839171 
C15   C     0.58326558005459 0.91495195387368 0.36313180394136 
C16   C     0.11928173724560 0.15068603602000 0.63565214787109 
C17   C     0.53918948631275 0.92401340742956 0.14820144106647 
C18   C     0.09303612624662 0.11693349759597 0.41369610283038 
C19   C     0.33988341168813 0.02232767847680 0.85087709971157 
C20   C     0.45562862305422 0.07347321595472 0.77449472871627 
C21   C     0.15048484656549 0.92672272223693 0.85564171067458 
C22   C     0.61350971563540 0.15550668848378 0.54627960109896 
C23   C     0.08235778647919 0.88940034361155 0.78419012283552 
C24   C     0.65042654970269 0.17957290302225 0.40339493832878 
C25   C     0.07187440627474 0.84874282151123 0.55386495935096 
C26   C     0.59189497945992 0.19912212752804 0.19740595643466 
C27   C     0.12821461519860 0.84947661673002 0.40388513479412 
C28   C     0.50182963370646 0.18883098379222 0.14036147176327 
C29   C     0.72181426447453 0.93854499463626 0.27158480691651 
C30   C     0.97945340367728 0.12806150285174 0.72275805625942 
C31   C     0.32324327704779 0.87627349544607 0.16337083348001 
C32   C     0.27207760837644 0.15353022105480 0.17223975634655 
C33   C     0.55058080588096 0.87916330790807 0.50467973961289 
C34   C     0.18582869550733 0.19854514433741 0.70675687664363 
C35   C     0.45455564484234 0.90344515357478 0.08021095038345 
C36   C     0.14158492387230 0.12608889684060 0.25899077641993 
C37   C     0.67908230955775 0.94451711502777 0.05889565290613 
C38   C     0.95334196025871 0.09707169412068 0.50362808602131 
C39   C     0.76590569991364 0.95682602930605 0.11928321890207 
C40   C     0.90004432909594 0.09686444071056 0.65301674762963 
C41   C     0.64458602552425 0.87577248842018 0.55902006054748 
C42   C     0.12324836000504 0.21473902548904 0.85650099500493 
C43   C     0.81566446184951 0.93647199671388 0.33054427734861 
C44   C     0.91820463571299 0.14355293254352 0.87628270112945 
C45   C     0.77766446211089 0.90722254956935 0.47296223128779 
C46   C     0.98933823924019 0.18461490754026 0.94332968279459 
H1    H     0.44999742347092 0.85184023410950 0.57117901323555 
H2    H     0.61534938963884 0.84685489180317 0.66801468624771 
H3    H     0.30377958570244 0.00802964684321 0.96738632013857 
H4    H     0.51663492380638 0.09728346657442 0.82749111545957 
H5    H     0.11310514224646 0.91720022764415 0.97364562354810 
H6    H     0.67650351453325 0.17526694703347 0.59878237166361 
H7    H     0.98624838061756 0.85297387808282 0.84445787896552 
H8    H     0.74580445242873 0.21568595487733 0.33835145971647 
H9    H     0.97359426206861 0.81620617261195 0.61901124147124 
H10   H     0.69068997975494 0.23118173971622 0.13329245212393 
H11   H     0.07349794516897 0.82094550854917 0.34666852486087 
H12   H     0.52916685031142 0.20900732426835 0.02730087181197 
H13   H     0.26093229774266 0.85194045725441 0.11219508513248 
H14   H     0.30654469229116 0.16945815330392 0.05636768974463 
H15   H     0.28721732643757 0.22553057533945 0.64208762336995 
H16   H     0.49826243406321 0.90485615858522 0.96075744372707 
H17   H     0.07071467183697 0.11625660156157 0.21271559181197 
H18   H     0.71484314806245 0.95067726442629 0.94056149216765 
H19   H     0.88978241929019 0.08199287518043 0.45006414634655 
H20   H     0.87113802172999 0.97590482237341 0.05088793579470 
H21   H     0.79397059451196 0.07923065387765 0.72086891360741 
H22   H     0.17796164203104 0.25256387608769 0.90617921536976 
H23   H     0.92051064109496 0.95561117958418 0.25936263664816 
H24   H     0.81259298352979 0.12371601802971 0.94052731175232 
H25   H     0.85131246004385 0.90590055761627 0.51625284238011 
H26   H     0.94071587970149 0.19617890953513 0.06167884666378 
