data_stdin
_audit_creation_method 'critic2'
_audit_creation_date 2023-8-11
_chemical_formula_sum 'C46 H26'
_cell_formula_units_Z 2
_cell_length_a        14.9587210004
_cell_length_b        11.1295311677
_cell_length_c        10.9491515601
_cell_angle_alpha       101.2451
_cell_angle_beta       127.9056
_cell_angle_gamma        74.9262
_cell_volume          1387.301137
_space_group_crystal_system triclinic
_space_group_IT_number 2
_space_group_name_H-M_alt 'P-1'
_space_group_name_Hall '-P 1'
loop_
_symmetry_equiv_pos_site_id
_symmetry_equiv_pos_as_xyz
 1 'x,y,z'
 2 '-x,-y,-z'
loop_
_atom_site_label
_atom_site_type_symbol
_atom_site_fract_x
_atom_site_fract_y
_atom_site_fract_z
C1    C     0.85428011264668 0.18705604803814 0.12328316508906 
C2    C     0.80264933343511 0.30465351044358 0.15655024818036 
C3    C     0.82951770318763 0.14834983845259 0.97303151146675 
C4    C     0.68896425408868 0.37132816113601 0.04421184682669 
C5    C     0.78501029871066 0.23296046866464 0.85468536511430 
C6    C     0.59733889074753 0.31320507333962 0.90806147245647 
C7    C     0.79507816789528 0.36325096311940 0.88128610897139 
C8    C     0.58902356399305 0.18317272549546 0.88969381469669 
C9    C     0.93701467854064 0.10615999820274 0.24755420981205 
C10   C     0.86708124410421 0.35654190225994 0.31062407248419 
C11   C     0.85238701089499 0.01817693431838 0.94132563858383 
C12   C     0.66513429858596 0.50200848711027 0.07208177926545 
C13   C     0.72770076195920 0.18337970774801 0.69868600717778 
C14   C     0.50614097542040 0.39090825204940 0.78325774473390 
C15   C     0.88947503332595 0.41596507296380 0.02121029789440 
C16   C     0.63497473912071 0.10544976719922 0.01549594332498 
C17   C     0.71320791218541 0.44300881284606 0.75560502407370 
C18   C     0.52142318738100 0.13078366708758 0.73622528990439 
C19   C     0.98815871060625 0.15441716499009 0.40319420039092 
C20   C     0.96145889936049 0.27869736251999 0.43330780266349 
C21   C     0.96934548563250 0.97878214086509 0.21467485719857 
C22   C     0.83468773006711 0.48506451849312 0.33991881071278 
C23   C     0.92177812434290 0.93482207741931 0.06493043421501 
C24   C     0.74124871341230 0.55708188276132 0.22166031160096 
C25   C     0.80792831515459 0.97230816350059 0.78680237149957 
C26   C     0.56444021866356 0.57604912543224 0.95163920902394 
C27   C     0.74180999816520 0.05205130306287 0.66825988167183 
C28   C     0.49185157099219 0.52278074652731 0.80855942107531 
C29   C     0.88354377395436 0.54803046400859 0.03997730576111 
C30   C     0.63413412408153 0.97456526323963 0.98479245335289 
C31   C     0.65554528796242 0.26530855056544 0.57368370430472 
C32   C     0.42899210167384 0.33646650965651 0.63422799263158 
C33   C     0.99375939013450 0.34235811569238 0.13527152895253 
C34   C     0.67125844949981 0.15384795611768 0.16610870505149 
C35   C     0.64135164551995 0.39138755444730 0.60246827296486 
C36   C     0.44335326530739 0.20991325506263 0.60866528577808 
C37   C     0.70705175614684 0.57480787046949 0.78050928049196 
C38   C     0.52648332347285 0.99916733754531 0.71037727223331 
C39   C     0.78698903699567 0.62622976470360 0.91992216995353 
C40   C     0.58405444108481 0.92285963725669 0.83061396715180 
C41   C     0.08508174935307 0.39500713936167 0.26222274586601 
C42   C     0.71050833304686 0.07753431769005 0.28151091635324 
C43   C     0.97698221500803 0.59994358591324 0.17332794214926 
C44   C     0.67755147970849 0.89794415037464 0.10589830005499 
C45   C     0.07675931756908 0.52527231177833 0.28295913761925 
C46   C     0.71549363928859 0.94785217035524 0.25245834649977 
H1    H     0.00268560424700 0.24180468443857 0.12124362710338 
H2    H     0.16437167204168 0.33509580802274 0.34658246382292 
H3    H     0.05264326691343 0.09191772914278 0.49743350516152 
H4    H     0.00777157749871 0.31870097886049 0.55148055522857 
H5    H     0.03069886413950 0.91715200533274 0.31081123318233 
H6    H     0.88752868740749 0.52517869487822 0.45711821661593 
H7    H     0.94163413755480 0.83651871904535 0.03810660205655 
H8    H     0.71961831335588 0.65647147386515 0.24234224744896 
H9    H     0.82443811178224 0.87234411411876 0.76436328362744 
H10   H     0.54752686049999 0.67592459666340 0.97445208043306 
H11   H     0.70239972562197 0.01668800048654 0.54884887165634 
H12   H     0.41828017498159 0.57978796058641 0.71319941263089 
H13   H     0.60847146498236 0.22545037909591 0.45540148608884 
H14   H     0.36089585645614 0.39783512356953 0.54038919833908 
H15   H     0.66706704512632 0.25351581923077 0.19134051208995 
H16   H     0.57993691280405 0.45429978984752 0.50803878159492 
H17   H     0.39068888148401 0.16762118997952 0.49246130242615 
H18   H     0.63773858932091 0.63323169032220 0.68372967605822 
H19   H     0.48188612986316 0.96120192853371 0.59140265977742 
H20   H     0.78247037930969 0.72672968039817 0.93851145275286 
H21   H     0.58666227766115 0.82263537020753 0.81026804709624 
H22   H     0.73773135192261 0.11866237342722 0.39565428896674 
H23   H     0.96947591463793 0.70082537134462 0.18597422106953 
H24   H     0.67847504471056 0.79832788165206 0.07958040108043 
H25   H     0.14883441645496 0.56682193742530 0.38278299505412 
H26   H     0.74658015434447 0.88793631245374 0.34370767385658 
