data_stdin
_audit_creation_method 'critic2'
_audit_creation_date 2023-8-11
_chemical_formula_sum 'C46 H26'
_cell_formula_units_Z 2
_cell_length_a        11.0571808687
_cell_length_b        14.8285039798
_cell_length_c         9.6644368957
_cell_angle_alpha        92.2459
_cell_angle_beta        65.1671
_cell_angle_gamma       103.5148
_cell_volume          1395.131646
_space_group_crystal_system triclinic
_space_group_IT_number 2
_space_group_name_H-M_alt 'P-1'
_space_group_name_Hall '-P 1'
loop_
_symmetry_equiv_pos_site_id
_symmetry_equiv_pos_as_xyz
 1 'x,y,z'
 2 '-x,-y,-z'
loop_
_atom_site_label
_atom_site_type_symbol
_atom_site_fract_x
_atom_site_fract_y
_atom_site_fract_z
C1    C     0.73279707622858 0.71218525869739 0.61675792889846 
C2    C     0.77801809920254 0.66171523197724 0.70321446544962 
C3    C     0.74839397242045 0.81166776320403 0.61417999906384 
C4    C     0.78410961469334 0.68937952278376 0.84563409240283 
C5    C     0.84819759745264 0.87681820935203 0.65179773182659 
C6    C     0.70145727695903 0.74703147819410 0.94886278154477 
C7    C     0.97582608650020 0.86104523642751 0.64213343552223 
C8    C     0.57354841260300 0.75969043285215 0.95452740877147 
C9    C     0.67262711395246 0.66038861063891 0.52491455075529 
C10   C     0.81539129739039 0.57770177873790 0.64631752794100 
C11   C     0.66080692890910 0.84791825123412 0.56917174122610 
C12   C     0.87420450366445 0.65512175126223 0.88904170632211 
C13   C     0.81990198928506 0.96483046699036 0.69881446431929 
C14   C     0.74812093850262 0.79375695268027 0.05559595495202 
C15   C     0.05370534500995 0.80208620793524 0.53507587485132 
C16   C     0.47868508490149 0.69106029955530 0.91374253336148 
C17   C     0.03705674745357 0.91474052061197 0.73141592143865 
C18   C     0.53086827264742 0.84101749594828 0.01839914703198 
C19   C     0.69036025751445 0.56877490236160 0.48977695807429 
C20   C     0.77046645743408 0.53228146416366 0.53739972952158 
C21   C     0.59795214367682 0.70145475896476 0.46625034084558 
C22   C     0.89483378033982 0.53917540694957 0.70146739325944 
C23   C     0.58494107706967 0.79040548170379 0.49690770534245 
C24   C     0.93119900581892 0.58086292695528 0.81158047856125 
C25   C     0.65129519499507 0.94176756205169 0.59418788323555 
C26   C     0.90380077269186 0.69366782580850 0.01182695950135 
C27   C     0.72137748386826 0.99624168270681 0.66691549067903 
C28   C     0.84973361879978 0.76523483693300 0.08555325333922 
C29   C     0.17163001548851 0.78485017825152 0.54594386687018 
C30   C     0.36699237730658 0.71708026403988 0.90062640526233 
C31   C     0.89058133523020 0.02123316218463 0.77716831016884 
C32   C     0.69196876162058 0.86809330040268 0.13309925262828 
C33   C     0.02860206976291 0.76847179660086 0.40792053612533 
C34   C     0.48220037993063 0.59601738328108 0.90138775415213 
C35   C     0.98827803665087 0.99269465203089 0.80372233032795 
C36   C     0.59423314602787 0.89576101535021 0.10527440672309 
C37   C     0.15261276335685 0.89399506318699 0.74229731685714 
C38   C     0.41965964554265 0.86525356872701 0.00235738829605 
C39   C     0.21483148986883 0.82873568686011 0.65697950928451 
C40   C     0.34442969288530 0.80747779065431 0.93870268989523 
C41   C     0.11044906013707 0.71781226177536 0.30217495196378 
C42   C     0.38689122100214 0.53165780659824 0.86854390974422 
C43   C     0.25130948787784 0.73018147121897 0.43878844675080 
C44   C     0.27376884253899 0.65068356343219 0.86099673465330 
C45   C     0.22217430131707 0.69713025860318 0.31807008299841 
C46   C     0.28321428461524 0.55938858137990 0.84479492636140 
H1    H     0.94551863785975 0.78543271289865 0.39061557992119 
H2    H     0.08979609540238 0.69459004887383 0.20427812672292 
H3    H     0.64424867128503 0.53040877438731 0.41856850207398 
H4    H     0.79522426646467 0.46603092773955 0.49960868485544 
H5    H     0.54975929912463 0.65996181132570 0.39920444305519 
H6    H     0.92821055492286 0.47727145578787 0.65184290870470 
H7    H     0.52256016663959 0.82077294649814 0.45886833153829 
H8    H     0.99777951984917 0.55439167741100 0.84821906518092 
H9    H     0.58391928967058 0.96818828948890 0.55868633139202 
H10   H     0.97347642572852 0.66684797232221 0.04274091568544 
H11   H     0.70877761149253 0.06631413756356 0.69432687651230 
H12   H     0.87857014336291 0.79889076889590 0.17313234374499 
H13   H     0.86235844401754 0.08603314866590 0.81834950589747 
H14   H     0.73092386768959 0.90352091468268 0.21213283743169 
H15   H     0.56014728016083 0.57271156905351 0.92072978451999 
H16   H     0.03611027863149 0.03214846532880 0.87257346330946 
H17   H     0.55706759548361 0.95629539888473 0.15670431446567 
H18   H     0.19109714829458 0.93284918414781 0.81952482248012 
H19   H     0.39501223960358 0.93083236792339 0.04424551836157 
H20   H     0.30301959215183 0.81319543239319 0.66560003065058 
H21   H     0.25955594752495 0.82637408287128 0.92705742588010 
H22   H     0.39110333519269 0.45887957603238 0.86249377742559 
H23   H     0.33907373148760 0.71685007622776 0.45133185853762 
H24   H     0.19247680824593 0.67307935443782 0.84651804198014 
H25   H     0.28641098898440 0.65747013679815 0.23386488463151 
H26   H     0.20934982831374 0.50841654011050 0.81739462693557 
