data_stdin
_audit_creation_method 'critic2'
_audit_creation_date 2023-8-11
_chemical_formula_sum 'C46 H26'
_cell_formula_units_Z 2
_cell_length_a         8.5830290205
_cell_length_b        16.9130955172
_cell_length_c        11.0368647225
_cell_angle_alpha       104.0327
_cell_angle_beta       114.1052
_cell_angle_gamma        82.2574
_cell_volume          1417.662671
_space_group_crystal_system triclinic
_space_group_IT_number 2
_space_group_name_H-M_alt 'P-1'
_space_group_name_Hall '-P 1'
loop_
_symmetry_equiv_pos_site_id
_symmetry_equiv_pos_as_xyz
 1 'x,y,z'
 2 '-x,-y,-z'
loop_
_atom_site_label
_atom_site_type_symbol
_atom_site_fract_x
_atom_site_fract_y
_atom_site_fract_z
C1    C     0.75757714703511 0.17707063241260 0.75167198539446 
C2    C     0.88054768402055 0.19189699162636 0.70238165573481 
C3    C     0.60904500680229 0.22946796181097 0.74825699313351 
C4    C     0.91680591092559 0.27199536315890 0.69819237588193 
C5    C     0.52633495354393 0.28335706562438 0.65394938859837 
C6    C     0.89037880695912 0.34705990215267 0.78536521132480 
C7    C     0.53470987128225 0.27271180210915 0.52275757433306 
C8    C     0.88311102988265 0.35313529161513 0.91620275842238 
C9    C     0.78442282689763 0.10608511542886 0.80651195644849 
C10   C     0.97624962174528 0.12369257898636 0.65990517084496 
C11   C     0.53833592217766 0.22702804905868 0.84353569286281 
C12   C     0.98901166510690 0.27664997134814 0.60479945200823 
C13   C     0.42587742326151 0.35099981590066 0.69245555656188 
C14   C     0.87455913323417 0.42123497210213 0.74044653920027 
C15   C     0.56406276493158 0.19477203679391 0.44319749848183 
C16   C     0.96891886458330 0.29649849321893 0.00576517760360 
C17   C     0.49627713181512 0.34133491792099 0.46085468473674 
C18   C     0.79883929245266 0.42352102737583 0.96630525458331 
C19   C     0.89843830767265 0.04203641293753 0.77804789434055 
C20   C     0.98017805404307 0.04816087648494 0.69719621920634 
C21   C     0.69523431017485 0.09953504398145 0.88765893110352 
C22   C     0.07130271252150 0.13244225573813 0.58416321941669 
C23   C     0.58453639251239 0.16107036270192 0.91267265741536 
C24   C     0.06667304086076 0.20525758564615 0.54924995014028 
C25   C     0.42113995698381 0.29017478568519 0.86849619676291 
C26   C     0.98873949273471 0.35306421654452 0.57201037839518 
C27   C     0.37587596681271 0.35294908244657 0.80132110392992 
C28   C     0.92287509315869 0.42215619323545 0.63164027782188 
C29   C     0.60459890680879 0.19301571572231 0.32919346097579 
C30   C     0.93244119063761 0.30231031072288 0.12323427391223 
C31   C     0.37283217000354 0.41542706812475 0.61994386071415 
C32   C     0.81102581244531 0.49417381731188 0.80440996465953 
C33   C     0.53549107065158 0.11940512046047 0.46362645799597 
C34   C     0.09975376698780 0.23934296374502 0.99032120936997 
C35   C     0.41689654392148 0.41301895989546 0.51317085206381 
C36   C     0.76002995491621 0.49309889378499 0.90619082062293 
C37   C     0.53220556318930 0.33732601367157 0.34389244842524 
C38   C     0.76255842091607 0.42663556459829 0.08261305142573 
C39   C     0.59470493582926 0.26687484623128 0.28522075531604 
C40   C     0.82209844623306 0.36698446420834 0.15623227554138 
C41   C     0.55824046131862 0.04615331865715 0.38286238548158 
C42   C     0.18030173074020 0.18711053165475 0.07859253595365 
C43   C     0.63847782410942 0.11711918933510 0.25361139062371 
C44   C     0.01211004351606 0.24620638177769 0.20938052356123 
C45   C     0.61566959242058 0.04456218796203 0.27952315579750 
C46   C     0.13366006723547 0.18888014894816 0.18767867074555 
H1    H     0.48926521500725 0.11988529859562 0.54188681418191 
H2    H     0.52947911212414 0.98943500192361 0.39778729261383 
H3    H     0.91368180516228 0.98697471332973 0.81725627584693 
H4    H     0.05627675729049 0.99688764136061 0.66588414189028 
H5    H     0.72077581393146 0.04565796841909 0.93165290544567 
H6    H     0.14317606310416 0.07955355284441 0.55160344272690 
H7    H     0.52311471504981 0.15922427760315 0.98091375730087 
H8    H     0.13201446779307 0.21117849039899 0.48575244635177 
H9    H     0.37299044743096 0.28881629527920 0.94519186034557 
H10   H     0.04053531127500 0.35512874100276 0.49777345686946 
H11   H     0.29097481628761 0.40269327463193 0.82363903940323 
H12   H     0.91408344293111 0.48007971366872 0.60197231313753 
H13   H     0.29950991530026 0.46744293239327 0.65320550357954 
H14   H     0.80125655635559 0.55021671479642 0.76926234286172 
H15   H     0.13888027326451 0.23692895298615 0.90765396660672 
H16   H     0.38452809182802 0.46418839704789 0.46241611932769 
H17   H     0.70076329397790 0.54729748330530 0.94940622639129 
H18   H     0.50907082653055 0.39230575983864 0.30296511459432 
H19   H     0.68510822038853 0.47817059477444 0.11118135504828 
H20   H     0.62577992714349 0.26459331995040 0.19811475573369 
H21   H     0.79367947698893 0.36994433243902 0.24487749490750 
H22   H     0.28136708070794 0.14449152804176 0.06425218889201 
H23   H     0.67857505205460 0.11718042151345 0.17183745328443 
H24   H     0.97671612185868 0.25027470017352 0.29492802076938 
H25   H     0.63692856556652 0.98641561531696 0.21854120042891 
H26   H     0.19752972071396 0.14730307614922 0.25640473676926 
