data_stdin
_audit_creation_method 'critic2'
_audit_creation_date 2023-8-11
_chemical_formula_sum 'C46 H26'
_cell_formula_units_Z 4
_cell_length_a        10.0282549210
_cell_length_b        19.3397450101
_cell_length_c        14.7005664049
_cell_angle_alpha        89.9995
_cell_angle_beta        83.9307
_cell_angle_gamma        89.9997
_cell_volume          2835.104151
_space_group_crystal_system monoclinic
_space_group_IT_number 9
_space_group_name_H-M_alt 'Cc'
_space_group_name_Hall 'C -2yc'
loop_
_symmetry_equiv_pos_site_id
_symmetry_equiv_pos_as_xyz
 1 'x,y,z'
 2 'x,-y,-1/2+z'
 3 '-1/2+x,-1/2+y,z'
 4 '-1/2+x,-1/2-y,-1/2+z'
loop_
_atom_site_label
_atom_site_type_symbol
_atom_site_fract_x
_atom_site_fract_y
_atom_site_fract_z
C1    C     0.00490607489630 0.24684582839167 0.00114348749862 
C2    C     0.94544790428252 0.20060387476855 0.07117899546779 
C3    C     0.14134113575873 0.24190079244152 0.95865321938283 
C4    C     0.01915773757536 0.16505385449835 0.13635823753937 
C5    C     0.22040866328158 0.17901095593703 0.95293278080302 
C6    C     0.14480959670686 0.18893550759881 0.16505456591281 
C7    C     0.16683904699526 0.10941289665764 0.95608260224608 
C8    C     0.19134039971473 0.25978558565317 0.16000688093729 
C9    C     0.92182762000223 0.29941916924579 0.96966843229468 
C10   C     0.80434424300003 0.19043976369897 0.07743562779777 
C11   C     0.20038511748192 0.30254444169329 0.91652270187388 
C12   C     0.96206516406563 0.10345817780494 0.17686413891702 
C13   C     0.36276040186492 0.18638992520658 0.93958861366773 
C14   C     0.22741901179027 0.13899756910533 0.20343485073969 
C15   C     0.03583208230974 0.09033254967145 0.93004466838662 
C16   C     0.10427474072422 0.31997580862393 0.16265333734333 
C17   C     0.25229669562248 0.05472060639861 0.97885067363584 
C18   C     0.33108944857901 0.27200797751247 0.16102627648458 
C19   C     0.77979330395111 0.29377089719416 0.98728137572459 
C20   C     0.72321084614719 0.23778808130440 0.03340216383875 
C21   C     0.98149993471665 0.35621182896816 0.91884610423083 
C22   C     0.74573078986851 0.13308977976897 0.12788103941268 
C23   C     0.11745989373293 0.35973725391055 0.89835805009359 
C24   C     0.82427808120725 0.08827715568982 0.17061151322953 
C25   C     0.34147863987625 0.30548370722314 0.89171226082675 
C26   C     0.04137412090198 0.05836543029498 0.22566024345818 
C27   C     0.42093160370459 0.25074431893284 0.90945958110440 
C28   C     0.17269277368131 0.07387030754445 0.23352916452040 
C29   C     0.98492648582649 0.02233956991685 0.95082047812110 
C30   C     0.16180405345667 0.38626311459829 0.13998486815430 
C31   C     0.44685915066064 0.12895930604436 0.95354794900327 
C32   C     0.36355844320396 0.15504700849577 0.21325202156237 
C33   C     0.95850188169593 0.13364914608722 0.87816624107622 
C34   C     0.96617194064898 0.31783401548491 0.19524358745629 
C35   C     0.39246120562236 0.06626317970546 0.97944032732994 
C36   C     0.41589115984744 0.21818390632201 0.18737796299757 
C37   C     0.19928614539399 0.98696855274601 0.99703280484328 
C38   C     0.38529867519262 0.33910028103732 0.13997878101947 
C39   C     0.06877431651063 0.97189575161332 0.98705202220574 
C40   C     0.30395341196579 0.39358323281966 0.12504609748840 
C41   C     0.83234203590415 0.11452049474636 0.85743416495249 
C42   C     0.88695972963629 0.37645387812568 0.19801659444609 
C43   C     0.85452200295353 0.00432190479919 0.93031401043003 
C44   C     0.07745572886767 0.44493132644035 0.13881652449041 
C45   C     0.77781637840099 0.04996782134093 0.88577767750205 
C46   C     0.94181345942814 0.44023337426394 0.16647850346210 
H1    H     0.99904742690945 0.18303355255704 0.85347369662986 
H2    H     0.77558173135196 0.14957938378693 0.81840088062696 
H3    H     0.71773744739148 0.33278231691220 0.95875852899155 
H4    H     0.61516689219004 0.23002574476643 0.04030153519015 
H5    H     0.91656513239203 0.39738479125397 0.89883641878189 
H6    H     0.63826498005938 0.12455679612351 0.12854680466947 
H7    H     0.16417979915291 0.40458666996188 0.86340828479567 
H8    H     0.78215062628589 0.04194877282544 0.20461906027709 
H9    H     0.38505880724550 0.35239311081608 0.86023413018946 
H10   H     0.99641256164796 0.01093632171068 0.25466311697303 
H11   H     0.52957397574077 0.25391696011385 0.89511308436194 
H12   H     0.23535434798824 0.03803554970890 0.26725869698651 
H13   H     0.55507208132907 0.13638796910354 0.94490696190945 
H14   H     0.42595384805073 0.11554844972685 0.24020023962063 
H15   H     0.92214158365743 0.26953247948909 0.22103614404464 
H16   H     0.45580077363817 0.02306433208434 0.99538483947315 
H17   H     0.52130102080806 0.22958861231732 0.19199214149369 
H18   H     0.26600139673278 0.94762623854491 0.01985953875378 
H19   H     0.49351869111666 0.34596867241107 0.13767283112332 
H20   H     0.02860390815886 0.92030839904220 0.00171825907567 
H21   H     0.34584609681634 0.44449902179628 0.10858805593135 
H22   H     0.78184411605470 0.37315082770942 0.22534806276567 
H23   H     0.81691566473811 0.95295791126447 0.94929343409396 
H24   H     0.12262885483569 0.49423805682682 0.11689647921500 
H25   H     0.67769848722725 0.03578376052783 0.86984022596446 
H26   H     0.87809769673362 0.48571019741158 0.16543484836967 
