data_stdin
_audit_creation_method 'critic2'
_audit_creation_date 2023-8-11
_chemical_formula_sum 'C46 H26'
_cell_formula_units_Z 2
_cell_length_a        11.1193803786
_cell_length_b        10.9397999018
_cell_length_c        11.9631317732
_cell_angle_alpha        81.6159
_cell_angle_beta        98.3138
_cell_angle_gamma        78.5833
_cell_volume          1388.443270
_space_group_crystal_system triclinic
_space_group_IT_number 2
_space_group_name_H-M_alt 'P-1'
_space_group_name_Hall '-P 1'
loop_
_symmetry_equiv_pos_site_id
_symmetry_equiv_pos_as_xyz
 1 'x,y,z'
 2 '-x,-y,-z'
loop_
_atom_site_label
_atom_site_type_symbol
_atom_site_fract_x
_atom_site_fract_y
_atom_site_fract_z
C1    C     0.18696222630022 0.73123489791085 0.14626016501500 
C2    C     0.30471639209777 0.64608576115647 0.19750467355723 
C3    C     0.14807105444650 0.85691447217895 0.17113733112747 
C4    C     0.37136418214854 0.64462036214071 0.31079050562109 
C5    C     0.23257330201687 0.93069642438589 0.21565041043951 
C6    C     0.31313245291698 0.68927515961284 0.40236293632424 
C7    C     0.36305654132992 0.91406632930962 0.20557848570125 
C8    C     0.18302451531884 0.69948091380305 0.41096776428082 
C9    C     0.10617661422978 0.68984615039130 0.06363919048046 
C10   C     0.35684846179454 0.55633223920289 0.13298796897045 
C11   C     0.01774226958344 0.91193930474874 0.14819801325976 
C12   C     0.50222516642130 0.59265466253864 0.33430828756058 
C13   C     0.18264157429662 0.02969396646583 0.27279521141409 
C14   C     0.39082433052223 0.72285438161394 0.49322536363003 
C15   C     0.41598848721712 0.86863070837466 0.11125157240200 
C16   C     0.10541721628121 0.61967979789183 0.36507353346379 
C17   C     0.44265980679932 0.95790429213595 0.28724647590344 
C18   C     0.13040188552024 0.78545257945574 0.47863186692797 
C19   C     0.15466668786637 0.58518632931920 0.01243937303731 
C20   C     0.27908538367678 0.52813862892411 0.03887602788464 
C21   C     0.97869503049964 0.75542447913914 0.03138527541977 
C22   C     0.48554145234406 0.49445715056863 0.16498395142981 
C23   C     0.93452144224392 0.85785271180821 0.07889529448050 
C24   C     0.55749775840313 0.51917596785996 0.25814012687802 
C25   C     0.97156270956737 0.02240575202603 0.19239143266542 
C26   C     0.57626301323904 0.61223596009268 0.43468789461479 
C27   C     0.05113775877173 0.07474227695278 0.25846775871583 
C28   C     0.52284312717745 0.68295630386253 0.50722630664376 
C29   C     0.54822715072691 0.84405271790686 0.11682610761118 
C30   C     0.97428449121654 0.64981951437865 0.36586827216726 
C31   C     0.26439498644901 0.08243819736181 0.34490807752587 
C32   C     0.33621433187729 0.79491800747990 0.57032717784260 
C33   C     0.34241951160810 0.85892688435836 0.00735186728251 
C34   C     0.15414968189772 0.50520400347863 0.32873117818933 
C35   C     0.39065918852248 0.03923599745472 0.35909639393304 
C36   C     0.20949130393343 0.83496164414402 0.55637174353109 
C37   C     0.57460182328344 0.92692949350851 0.29304992012503 
C38   C     0.99861617496455 0.81645761258744 0.47378798548174 
C39   C     0.62629601929583 0.86760408818833 0.21304128557238 
C40   C     0.92236229929070 0.75394865906775 0.41620676473882 
C41   C     0.39525391568422 0.82341778691448 0.91607262214878 
C42   C     0.07789535715552 0.42934019942796 0.28900508450335 
C43   C     0.60029892398839 0.80427675783835 0.02340813120052 
C44   C     0.89777501354713 0.57240431821994 0.32203167567990 
C45   C     0.52564854389443 0.79440812452710 0.92401643586312 
C46   C     0.94799420668773 0.46379046412180 0.28373386562359 
H1    H     0.24174741270138 0.88190201974160 0.99864339242775 
H2    H     0.33532135670215 0.81850122394575 0.83707475258644 
H3    H     0.09221130788929 0.55553344468383 0.94812940739660 
H4    H     0.31931116461449 0.45617259637800 0.99255175207520 
H5    H     0.91720420409207 0.72073985805003 0.97010612541850 
H6    H     0.52580121815370 0.43009747065876 0.11203894850921 
H7    H     0.83613116705215 0.90483205835041 0.05912015106290 
H8    H     0.65704135147072 0.47686499390294 0.27942441146728 
H9    H     0.87149196244436 0.06171720855265 0.17562012941554 
H10   H     0.67623114860010 0.57220357824081 0.45136377773089 
H11   H     0.01556559011367 0.15505903878514 0.29766486073865 
H12   H     0.57986689450330 0.70469378653295 0.58051211216624 
H13   H     0.22416012230169 0.15381438463734 0.39184975345633 
H14   H     0.39763844698647 0.82068014989436 0.63807109095430 
H15   H     0.25401460644515 0.47548564120111 0.33323933992493 
H16   H     0.45335436182025 0.07221905243758 0.42047184037251 
H17   H     0.16710742861040 0.89862437458266 0.60906794183461 
H18   H     0.63297662992809 0.95438185709140 0.36212069257960 
H19   H     0.96044141220993 0.89086493035325 0.51849321651184 
H20   H     0.72692359530310 0.84470687764665 0.21734820748218 
H21   H     0.82201126690904 0.77712461990044 0.41373729060830 
H22   H     0.11935406582144 0.34235254414063 0.26167254287465 
H23   H     0.70127487292970 0.78428044770704 0.03062356437504 
H24   H     0.79797311924430 0.59982163051907 0.32097372924986 
H25   H     0.56708230007192 0.76683568585154 0.85182746526943 
H26   H     0.88824387380559 0.40380887642214 0.25217580943549 
