data_stdin
_audit_creation_method 'critic2'
_audit_creation_date 2023-8-11
_chemical_formula_sum 'C46 H26'
_cell_formula_units_Z 4
_cell_length_a        10.8507723602
_cell_length_b        29.5194674703
_cell_length_c        10.0038934701
_cell_angle_alpha        89.9993
_cell_angle_beta        63.0245
_cell_angle_gamma        90.0019
_cell_volume          2855.707232
_space_group_crystal_system monoclinic
_space_group_IT_number 14
_space_group_name_H-M_alt 'P2_1/c'
_space_group_name_Hall '-P 2ybc'
loop_
_symmetry_equiv_pos_site_id
_symmetry_equiv_pos_as_xyz
 1 'x,y,z'
 2 '-x,-y,-z'
 3 '-x,-1/2+y,-1/2-z'
 4 'x,-1/2-y,-1/2+z'
loop_
_atom_site_label
_atom_site_type_symbol
_atom_site_fract_x
_atom_site_fract_y
_atom_site_fract_z
C1    C     0.45946897775862 0.11474770715218 0.89700188135335 
C2    C     0.54988650833713 0.14970975307904 0.80199177891873 
C3    C     0.38710232020555 0.08229144989541 0.85003776093271 
C4    C     0.53701555130247 0.17007031174074 0.67754495358976 
C5    C     0.43226371311920 0.06784362932524 0.69665681799942 
C6    C     0.41052475892386 0.17109206700064 0.66173574732747 
C7    C     0.57328518415660 0.06976662173483 0.57995438434789 
C8    C     0.27132740330763 0.16947248423831 0.78394427078150 
C9    C     0.44215235555383 0.11158960366664 0.04636688636799 
C10   C     0.65494159036828 0.16643186447765 0.83696275649987 
C11   C     0.26546122301147 0.06208058637153 0.96350620050929 
C12   C     0.65593403378308 0.19202256543710 0.56514787947921 
C13   C     0.33117677769644 0.04860164297518 0.65949508637850 
C14   C     0.42464673730028 0.17677724524437 0.51363877044783 
C15   C     0.69405865599796 0.06851144911130 0.60656529933274 
C16   C     0.23251406707566 0.18344813680656 0.93744720931176 
C17   C     0.59671591674248 0.06778770521862 0.42831947068308 
C18   C     0.16193089212443 0.15780844393021 0.74892593994489 
C19   C     0.53815339364040 0.13353072461341 0.08555564664127 
C20   C     0.64715168028358 0.15737775435693 0.98045905648510 
C21   C     0.32922053421782 0.08634101247465 0.15533615448487 
C22   C     0.76511402402578 0.19299809396048 0.72969761288167 
C23   C     0.23811896078670 0.06507069484745 0.11667006180308 
C24   C     0.76975895303157 0.20289073530014 0.59401025426954 
C25   C     0.17339546721620 0.03817874235003 0.92302536561806 
C26   C     0.65985729533165 0.20363562870171 0.42518610172660 
C27   C     0.20129237738156 0.03433934547853 0.77581625651458 
C28   C     0.55148415118175 0.19299347456642 0.39674851284693 
C29   C     0.82666601563188 0.07899104234434 0.48595918771833 
C30   C     0.09549550447048 0.17430416534408 0.05220313104009 
C31   C     0.36203596607180 0.04200109642081 0.50663768587791 
C32   C     0.30999533508368 0.16897271127825 0.48403544481892 
C33   C     0.69026546885700 0.05284839205966 0.74231744636794 
C34   C     0.31898675110041 0.20942712896785 0.97967843990146 
C35   C     0.48828539090952 0.05407913520707 0.39442555113702 
C36   C     0.18480028822463 0.15658988756573 0.59718637766670 
C37   C     0.73110473293577 0.07696639892813 0.30949471687241 
C38   C     0.02582202545043 0.14963327018869 0.86589469791408 
C39   C     0.84081226730383 0.08500016514942 0.33807247867673 
C40   C     0.99483616491843 0.15577138244726 0.01287912400184 
C41   C     0.80759392743879 0.05235621035148 0.76361085559240 
C42   C     0.27914360571124 0.22137259786201 0.12721233988157 
C43   C     0.94427409253421 0.07999824933048 0.51229512473633 
C44   C     0.05799547056868 0.18601132896420 0.20307835745767 
C45   C     0.93511515427319 0.06747767341299 0.64946791310616 
C46   C     0.14882479306282 0.20865627478019 0.24131931283647 
H1    H     0.59376489688061 0.04020400405173 0.83080486188507 
H2    H     0.80076258533714 0.04012105448787 0.86948300571160 
H3    H     0.52588531399722 0.12941101921869 0.19902502824085 
H4    H     0.72579688288106 0.17185024289351 0.00701195556586 
H5    H     0.31451217464703 0.08584802756941 0.27048556554947 
H6    H     0.84729617258794 0.20409803086829 0.75623514698371 
H7    H     0.14730057612714 0.04789829484705 0.20097106886873 
H8    H     0.85742761610172 0.22110430975139 0.50856267824842 
H9    H     0.07855686056800 0.02441268271137 0.01227286901465 
H10   H     0.75171185697819 0.22003364451826 0.33999869076722 
H11   H     0.12870442078917 0.01783968540011 0.74409376838508 
H12   H     0.55708416022640 0.19954633044133 0.28698118715438 
H13   H     0.28320890073826 0.02720932185918 0.48099351536271 
H14   H     0.32403102778845 0.17291111844961 0.36976507013772 
H15   H     0.41867196950973 0.22098917244628 0.89457123621525 
H16   H     0.51131854864734 0.05021953413339 0.27716550885289 
H17   H     0.09786954721818 0.14883168307949 0.57463410788888 
H18   H     0.74396284726781 0.07712799701218 0.19490612283904 
H19   H     0.94729128655248 0.13813848150130 0.83424757681071 
H20   H     0.94237438128849 0.09307020399746 0.24760136561348 
H21   H     0.89138653291549 0.14892438188725 0.10194665519256 
H22   H     0.34890183844810 0.24133755821278 0.15446798289673 
H23   H     0.04302808233639 0.09015003598845 0.42068389853766 
H24   H     0.95465545576276 0.17709373348966 0.28824250241521 
H25   H     0.02641085390568 0.06842530677470 0.66798078458901 
H26   H     0.11924644536516 0.21789311270943 0.35737268492103 
