data_stdin
_audit_creation_method 'critic2'
_audit_creation_date 2023-8-11
_chemical_formula_sum 'C46 H26'
_cell_formula_units_Z 2
_cell_length_a        10.9392795342
_cell_length_b        16.1611797184
_cell_length_c        11.1223078299
_cell_angle_alpha       116.5563
_cell_angle_beta        78.5485
_cell_angle_gamma        64.4725
_cell_volume          1388.301511
_space_group_crystal_system triclinic
_space_group_IT_number 2
_space_group_name_H-M_alt 'P-1'
_space_group_name_Hall '-P 1'
loop_
_symmetry_equiv_pos_site_id
_symmetry_equiv_pos_as_xyz
 1 'x,y,z'
 2 '-x,-y,-z'
loop_
_atom_site_label
_atom_site_type_symbol
_atom_site_fract_x
_atom_site_fract_y
_atom_site_fract_z
C1    C     0.65638445907031 0.69736962433073 0.89229587412424 
C2    C     0.62245024616527 0.64604595936042 0.95877488571673 
C3    C     0.54470461037957 0.81067687150877 0.93898327934349 
C4    C     0.47200859555911 0.67079833278409 0.02259692727538 
C5    C     0.40864633097213 0.90220153853702 0.08881081436747 
C6    C     0.35375147466271 0.71534049651973 0.98272005348310 
C7    C     0.39011193822967 0.91074824990306 0.22742744338776 
C8    C     0.38048709246892 0.70527889776198 0.84218966024097 
C9    C     0.81055397092175 0.63300325742840 0.77576984208748 
C10   C     0.74630882546345 0.56354099902790 0.95700059443016 
C11   C     0.57316729304166 0.83432862640857 0.83181198336481 
C12   C     0.43994450889066 0.64781286922390 0.12993987273961 
C13   C     0.28428852656154 0.99302405926611 0.10206014210845 
C14   C     0.19770940699704 0.77257493557166 0.08996337037340 
C15   C     0.51593256650769 0.86470855888566 0.25880393569327 
C16   C     0.52018744668609 0.61108282802051 0.69487852678868 
C17   C     0.23668798431733 0.97844109366317 0.34789617855418 
C18   C     0.25509426392380 0.78695543202498 0.84436338662373 
C19   C     0.93271195695666 0.53890891267854 0.75938990807363 
C20   C     0.90205655962502 0.51243334763110 0.85733501862821 
C21   C     0.84053004268631 0.66524036354641 0.67938002795534 
C22   C     0.71302432717611 0.53125664799128 0.05223445833649 
C23   C     0.72284533782794 0.75839451494072 0.70059730476218 
C24   C     0.56324385082842 0.57856616695084 0.14385185356882 
C25   C     0.45324730186004 0.93462798656567 0.85813626818064 
C26   C     0.28534860488810 0.69203077963766 0.22041020557658 
C27   C     0.31007638594779 0.00703150995347 0.98403750250380 
C28   C     0.16699775909974 0.75825199751446 0.20714906911070 
C29   C     0.48519991662043 0.86534064139091 0.39055309791998 
C30   C     0.53909156002748 0.61690463955869 0.56847990097854 
C31   C     0.13532633868953 0.07012031007067 0.23391644745798 
C32   C     0.07297476617033 0.84470982451233 0.08041919788323 
C33   C     0.66670127812275 0.82833359531029 0.17353062808191 
C34   C     0.63390148005584 0.50712362631747 0.66423894895365 
C35   C     0.10945409431347 0.05617696500646 0.34671241216657 
C36   C     0.10204664600727 0.85880097025702 0.96824990784155 
C37   C     0.21068668454057 0.97360925259101 0.47484562455200 
C38   C     0.28016197438033 0.79295494550297 0.71839679595833 
C39   C     0.33082846829066 0.91583260625591 0.49313830400451 
C40   C     0.41939259542168 0.71313442156914 0.58675414303024 
C41   C     0.78237331919402 0.78843497691859 0.20973632020732 
C42   C     0.76066230097226 0.41604706752192 0.52012267151694 
C43   C     0.60656028705846 0.82121697826113 0.42283855455630 
C44   C     0.67218288674540 0.52368636208642 0.42294265999179 
C45   C     0.75335900427286 0.78294068367220 0.33418276083637 
C46   C     0.78152675390015 0.42425787441026 0.39790611222394 
H1    H     0.69184875324619 0.83290141345235 0.07822822190437 
H2    H     0.89667819425114 0.76106903217613 0.14088040548106 
H3    H     0.05096118810786 0.49260668518778 0.67293808103278 
H4    H     0.99598957844922 0.44814041125720 0.85541038338106 
H5    H     0.95780610206991 0.61251910321523 0.58637726603542 
H6    H     0.80893681284355 0.47009646642312 0.05250130566589 
H7    H     0.74404961658636 0.77995312353767 0.62268126608333 
H8    H     0.53611729174715 0.55869506374060 0.22239273024706 
H9    H     0.47650545257931 0.95137236967677 0.77488425548395 
H10   H     0.26271790678628 0.67520491540088 0.30364023835081 
H11   H     0.21505714819385 0.08024407561476 0.00030957935383 
H12   H     0.04755424978800 0.79751041320664 0.28210258828618 
H13   H     0.04179692915575 0.13789068598779 0.24041088533475 
H14   H     0.95470492732890 0.89174515370714 0.16766309185813 
H15   H     0.61978503539106 0.49821670909370 0.75601960715518 
H16   H     0.99325783334138 0.10886502692486 0.44194239816966 
H17   H     0.00784374091937 0.92013499631397 0.96686450994021 
H18   H     0.09168205040339 0.01843448373102 0.55797990576715 
H19   H     0.18363144317587 0.86205555754084 0.72926944550052 
H20   H     0.31030814554644 0.91331806103811 0.59097728821881 
H21   H     0.43804251308324 0.71754697522910 0.49053470167617 
H22   H     0.84476516698613 0.33701320288304 0.50078576379794 
H23   H     0.58038405225649 0.81988179219565 0.52135244385110 
H24   H     0.68482123838568 0.53107212397841 0.32933861704205 
H25   H     0.84485505042893 0.75118587701373 0.36223027724846 
H26   H     0.88114713523068 0.35237985046622 0.28415223481718 
