data_stdin
_audit_creation_method 'critic2'
_audit_creation_date 2023-8-11
_chemical_formula_sum 'C46 H26'
_cell_formula_units_Z 2
_cell_length_a        10.2960131391
_cell_length_b        11.1738571270
_cell_length_c        14.2231811136
_cell_angle_alpha        97.7541
_cell_angle_beta        89.0636
_cell_angle_gamma       117.0214
_cell_volume          1442.493631
_space_group_crystal_system triclinic
_space_group_IT_number 2
_space_group_name_H-M_alt 'P-1'
_space_group_name_Hall '-P 1'
loop_
_symmetry_equiv_pos_site_id
_symmetry_equiv_pos_as_xyz
 1 'x,y,z'
 2 '-x,-y,-z'
loop_
_atom_site_label
_atom_site_type_symbol
_atom_site_fract_x
_atom_site_fract_y
_atom_site_fract_z
C1    C     0.29403569394485 0.96792894051676 0.72020461856099 
C2    C     0.33240662420450 0.08218364858740 0.79375834805163 
C3    C     0.16219841082726 0.90845123532233 0.66011096286037 
C4    C     0.22716829257077 0.11298428605684 0.84568590177018 
C5    C     0.08193018163684 0.98027580971662 0.63919258897961 
C6    C     0.07921899753818 0.01365178962786 0.85859252584880 
C7    C     0.14323602945353 0.12593208638784 0.64370878688817 
C8    C     0.02973224683061 0.86916283069591 0.85382626460430 
C9    C     0.39413669276299 0.91310675295498 0.70450103375417 
C10   C     0.48308571261161 0.16757249180984 0.81784158378634 
C11   C     0.11017170976883 0.77112740807751 0.61725710020032 
C12   C     0.27359068524148 0.24973420123518 0.88817450643907 
C13   C     0.93171585620242 0.90069446765213 0.60977137469686 
C14   C     0.97493251562465 0.06309450367434 0.87958486969952 
C15   C     0.29585733708663 0.21532867126859 0.63159557947030 
C16   C     0.12226347553634 0.80777965320157 0.87339017877210 
C17   C     0.04608541574453 0.18476078463465 0.65175537921196 
C18   C     0.87770474619496 0.78115886210161 0.83753431035131 
C19   C     0.54094477843006 0.99107959286555 0.74171586030802 
C20   C     0.58643068668745 0.11933284977471 0.78980604641206 
C21   C     0.34597765587689 0.78175412057223 0.65083684968141 
C22   C     0.52742668391376 0.29924023562708 0.87010524836531 
C23   C     0.20474686510747 0.70914377760195 0.61488528061481 
C24   C     0.42559900318498 0.34212144439130 0.89747688196891 
C25   C     0.96522116050033 0.69831537688072 0.57634961725155 
C26   C     0.16815327293939 0.29260436487090 0.92132125487270 
C27   C     0.87536755986393 0.75864557823673 0.57929864401106 
C28   C     0.02258494646526 0.20409764401834 0.91003825169121 
C29   C     0.34884432817934 0.35908350973815 0.65313904645390 
C30   C     0.06703728699231 0.66376679614193 0.85187823954636 
C31   C     0.83911249172596 0.96396193297142 0.60924620153589 
C32   C     0.82322775114869 0.97119903003532 0.87167938325164 
C33   C     0.39392575737439 0.16830673031843 0.59112836231404 
C34   C     0.26122256698697 0.88170671581717 0.92183220621257 
C35   C     0.89301888232271 0.10076690981385 0.63610921770867 
C36   C     0.77608640427159 0.83529525949727 0.84466264290102 
C37   C     0.10233239010688 0.32867606968590 0.67199649078628 
C38   C     0.82550563497809 0.63768203596564 0.81747645995616 
C39   C     0.24890541180498 0.41283670945387 0.67799413001021 
C40   C     0.91815012062425 0.58120543368255 0.81945113209362 
C41   C     0.53895465084040 0.25603650697105 0.58125065592877 
C42   C     0.34638967618646 0.82019728336509 0.93995796881090 
C43   C     0.49838665377079 0.44684673060639 0.64393034084677 
C44   C     0.15773971789788 0.60345707754716 0.86848132856727 
C45   C     0.59314356334843 0.39656428208926 0.61022794986607 
C46   C     0.29647397856167 0.68033837541162 0.91023218240418 
H1    H     0.35394401790219 0.06088934524192 0.56618673371174 
H2    H     0.61083074995430 0.21593593080770 0.54982271719086 
H3    H     0.61773991070150 0.94948419728776 0.72781407799590 
H4    H     0.70121008314566 0.18383399090821 0.81141542781698 
H5    H     0.42252018486128 0.73910810050870 0.64106946003541 
H6    H     0.64355119415317 0.36620528840884 0.88475333290419 
H7    H     0.16437884992009 0.60465003131089 0.58036629041509 
H8    H     0.45908709476624 0.44652294526941 0.92986129782271 
H9    H     0.92647353105525 0.59271536754155 0.54495366710263 
H10   H     0.20499641105171 0.39748077930901 0.95363960616920 
H11   H     0.76178638195966 0.70120226205382 0.55300211451044 
H12   H     0.94088035285820 0.23820297613216 0.92976006221147 
H13   H     0.72419165916130 0.90040366674550 0.58814535247955 
H14   H     0.74577273810229 0.01200521790089 0.88530848240553 
H15   H     0.30007002531933 0.98889867193560 0.94697342950417 
H16   H     0.82082272685071 0.14835783841197 0.64062831513204 
H17   H     0.65985656295473 0.76559845536581 0.83362982970661 
H18   H     0.02473575820291 0.37011504900061 0.68278571846118 
H19   H     0.70946760720681 0.57386348860797 0.79968515494753 
H20   H     0.29060029059454 0.52204378991628 0.69712521078379 
H21   H     0.87834269709296 0.47190631912527 0.80141437912890 
H22   H     0.45189872166370 0.87972670397235 0.97828929465753 
H23   H     0.53706948009950 0.55598809825009 0.66220824645178 
H24   H     0.11482877194756 0.49412630629204 0.84913203826895 
H25   H     0.70797963898483 0.46546858942966 0.60454735298911 
H26   H     0.36557649470066 0.63316395447972 0.92277583665953 
