data_stdin
_audit_creation_method 'critic2'
_audit_creation_date 2023-8-11
_chemical_formula_sum 'C46 H26'
_cell_formula_units_Z 2
_cell_length_a        10.0733106894
_cell_length_b        10.7121309448
_cell_length_c        14.9090668907
_cell_angle_alpha        83.1984
_cell_angle_beta        89.9956
_cell_angle_gamma        63.6106
_cell_volume          1428.498761
_space_group_crystal_system triclinic
_space_group_IT_number 2
_space_group_name_H-M_alt 'P-1'
_space_group_name_Hall '-P 1'
loop_
_symmetry_equiv_pos_site_id
_symmetry_equiv_pos_as_xyz
 1 'x,y,z'
 2 '-x,-y,-z'
loop_
_atom_site_label
_atom_site_type_symbol
_atom_site_fract_x
_atom_site_fract_y
_atom_site_fract_z
C1    C     0.17590823059413 0.68537986216351 0.30530101459188 
C2    C     0.05194667055901 0.77107782404128 0.24177998497773 
C3    C     0.28415846037207 0.72865293911401 0.33415371822787 
C4    C     0.05142529478697 0.87713105881047 0.17219265002931 
C5    C     0.25606550418683 0.87356247995467 0.33322069984528 
C6    C     0.18339310667959 0.87689068928749 0.13350443180749 
C7    C     0.11117706506397 0.99100109755992 0.33579103448409 
C8    C     0.32204324702327 0.75320815886944 0.12792412292256 
C9    C     0.18963972041111 0.55214419540089 0.34419717653575 
C10   C     0.92337918239880 0.74834491647033 0.24738584475991 
C11   C     0.42603250026945 0.62111947752569 0.36804729640916 
C12   C     0.91137531133860 0.98758506660277 0.13790988975252 
C13   C     0.38157815987107 0.90193298507218 0.33190895309227 
C14   C     0.17260089781565 0.00924232407629 0.09420002521338 
C15   C     0.98475951657969 0.98038581694962 0.37597749210040 
C16   C     0.33645523830232 0.61200941627952 0.12812761623446 
C17   C     0.09455844639928 0.12778161920894 0.30375705657346 
C18   C     0.45191012645977 0.77188721437534 0.11232175765181 
C19   C     0.06483551081085 0.52336696475490 0.33929203816504 
C20   C     0.93248834622260 0.62290312022095 0.29789836764934 
C21   C     0.32712430483254 0.45084072971200 0.38893811311313 
C22   C     0.78737910404467 0.85130609948216 0.20202491102826 
C23   C     0.44489788857321 0.48145738795511 0.39422404547796 
C24   C     0.77993476011599 0.97163368685230 0.15422050096957 
C25   C     0.54638065055887 0.65498560551881 0.37833452007712 
C26   C     0.90400312164901 0.11220907833206 0.08743122515610 
C27   C     0.52641799537470 0.78986662025983 0.35489644662264 
C28   C     0.03083446515211 0.12650192609957 0.07344035803956 
C29   C     0.84113498007102 0.09825870377918 0.36091265997271 
C30   C     0.48130765605430 0.49540673742191 0.13761930168532 
C31   C     0.36154175825353 0.04228512471146 0.30839785864249 
C32   C     0.30321946107820 0.02274483190066 0.07237858634045 
C33   C     0.99777666462286 0.86288430894495 0.43672048615081 
C34   C     0.21510956357730 0.58300551989997 0.11135454172081 
C35   C     0.22226178137906 0.15018594377264 0.28789765415001 
C36   C     0.43966028320499 0.90905892917622 0.08690051470711 
C37   C     0.94991303051141 0.24415253008305 0.29110748851056 
C38   C     0.59461814688958 0.65310805058706 0.11804638339491 
C39   C     0.82655425343481 0.22862080953323 0.31456020898480 
C40   C     0.60979382488278 0.51937460980334 0.13515755650525 
C41   C     0.87479027612248 0.85614249260142 0.47332891223256 
C42   C     0.23322619751862 0.44693691478870 0.11313779819924 
C43   C     0.71622754230423 0.08753803106146 0.39738747443650 
C44   C     0.49634011479174 0.35690780645529 0.14338953219219 
C45   C     0.73195038708926 0.96777232990421 0.45201747007894 
C46   C     0.37460335536553 0.33199614559465 0.13254436304367 
H1    H     0.10706340077325 0.77776798824288 0.45697387354238 
H2    H     0.88938752260910 0.76462051623073 0.52031664965714 
H3    H     0.07500888895354 0.42311372266837 0.37258044525771 
H4    H     0.83367538436436 0.60570074644889 0.29969531970605 
H5    H     0.33761933345851 0.34779266590689 0.41663095020041 
H6    H     0.68863450055628 0.83487358767025 0.20948775079404 
H7    H     0.55243978487282 0.40227396069217 0.42409672990171 
H8    H     0.67448009624542 0.05438472383828 0.12406866826828 
H9    H     0.65457805994155 0.57083430984101 0.40343014305142 
H10   H     0.79612321091652 0.19666619453828 0.06242108767037 
H11   H     0.61950621843442 0.81537334062119 0.35777419796169 
H12   H     0.02607252097495 0.22527324830949 0.04122741380475 
H13   H     0.45958067184134 0.06070225090221 0.30396819954945 
H14   H     0.29189394665511 0.12607981863110 0.04487498770533 
H15   H     0.10532175985302 0.66987691080481 0.09597088006324 
H16   H     0.20694904105377 0.25607405699914 0.26394965957189 
H17   H     0.54032176747737 0.92046382055293 0.07413907122796 
H18   H     0.94043279873161 0.34601033977603 0.26143059791731 
H19   H     0.69172105065683 0.67188719028353 0.10799984055391 
H20   H     0.71631775240337 0.31696272142463 0.30236391634335 
H21   H     0.71899604327840 0.42914225883901 0.14098572291172 
H22   H     0.13695519036289 0.42919810259928 0.09985543642779 
H23   H     0.60746946781969 0.17748473378984 0.38306964559594 
H24   H     0.60733067626355 0.26999143220231 0.15529483322628 
H25   H     0.63565043410991 0.96165335783292 0.48129441205974 
H26   H     0.38814225704920 0.22475854188128 0.13707175353610 
