data_stdin
_audit_creation_method 'critic2'
_audit_creation_date 2023-8-11
_chemical_formula_sum 'C46 H26'
_cell_formula_units_Z 2
_cell_length_a        14.6299260268
_cell_length_b        10.0221302831
_cell_length_c        10.8745270703
_cell_angle_alpha       116.7699
_cell_angle_beta        97.0764
_cell_angle_gamma        82.4167
_cell_volume          1407.449680
_space_group_crystal_system triclinic
_space_group_IT_number 2
_space_group_name_H-M_alt 'P-1'
_space_group_name_Hall '-P 1'
loop_
_symmetry_equiv_pos_site_id
_symmetry_equiv_pos_as_xyz
 1 'x,y,z'
 2 '-x,-y,-z'
loop_
_atom_site_label
_atom_site_type_symbol
_atom_site_fract_x
_atom_site_fract_y
_atom_site_fract_z
C1    C     0.76887232069488 0.12573116945591 0.93624380415818 
C2    C     0.69836523912552 0.22986547493119 0.02056616673425 
C3    C     0.83419386914533 0.16476925125788 0.87086724130517 
C4    C     0.65614257550929 0.36025983742550 0.00452288287443 
C5    C     0.86321955191213 0.31404672266108 0.91964935201711 
C6    C     0.65092336154352 0.37648902987853 0.87784510345990 
C7    C     0.85922613606551 0.43034326721101 0.05988661284521 
C8    C     0.65311197296543 0.25441116975205 0.73960778973559 
C9    C     0.77530747996970 0.97527461962840 0.91821112639134 
C10   C     0.66607122994557 0.19899011226615 0.12255272240011 
C11   C     0.87457870266335 0.04700434854903 0.75286808281647 
C12   C     0.61370891242215 0.47865186163197 0.12009896722581 
C13   C     0.90161910988548 0.34711049559024 0.82317696316008 
C14   C     0.63856120526971 0.52565688199995 0.89039048974035 
C15   C     0.86223347935374 0.40281121923966 0.18050501200023 
C16   C     0.62516793231749 0.10533081939587 0.69900505136878 
C17   C     0.86207428719638 0.58132686654387 0.08367337027194 
C18   C     0.67575076474757 0.28599226359448 0.63227116783899 
C19   C     0.73193270605457 0.94138345475056 0.00985810884401 
C20   C     0.68517254073128 0.05270393230703 0.11570985216152 
C21   C     0.82561592286126 0.86038946100696 0.80932973842770 
C22   C     0.61295852291249 0.31338969756436 0.22794845091520 
C23   C     0.86816119594402 0.89462094601599 0.72332523817881 
C24   C     0.59312141012363 0.45219663514804 0.23156353964431 
C25   C     0.92286442461008 0.08212088417902 0.66668646278276 
C26   C     0.58987053420780 0.62197466512449 0.12244592592050 
C27   C     0.93064355404338 0.22821944586343 0.69648254925428 
C28   C     0.60866062936941 0.64703452863021 0.01501775060669 
C29   C     0.84008399700961 0.52520784310982 0.31018502335826 
C30   C     0.64217533225900 0.98890782811458 0.56400220618006 
C31   C     0.91414539555879 0.49809596336419 0.85549334825230 
C32   C     0.65289358260902 0.55314724743421 0.77703341017781 
C33   C     0.89450999572862 0.26291270712670 0.18002721561418 
C34   C     0.57430057168753 0.07023667346409 0.78181002787413 
C35   C     0.88924115668395 0.61253069874671 0.97866244033529 
C36   C     0.67762470258358 0.43704194459909 0.65465391311759 
C37   C     0.84277496609190 0.70163532948847 0.21549459499995 
C38   C     0.69241806487874 0.16697869651088 0.49881416716480 
C39   C     0.82679669906146 0.67448646685306 0.32292307170405 
C40   C     0.67970470196167 0.02239437408204 0.46711526347246 
C41   C     0.89453785144879 0.24022920171868 0.29641765426977 
C42   C     0.54874793792380 0.92732485765885 0.73984754453022 
C43   C     0.83762834495321 0.49815534724655 0.42671129295305 
C44   C     0.61758328929146 0.84239733020936 0.52465503065789 
C45   C     0.86289574350885 0.35738540577252 0.41985134246377 
C46   C     0.57236845731748 0.81067596585041 0.61123022929136 
H1    H     0.92099081680026 0.17191658868648 0.08688975939223 
H2    H     0.91930599088604 0.13082947525849 0.29186739580871 
H3    H     0.74000803088992 0.82657220346922 0.99742718208367 
H4    H     0.65774935971899 0.02937076533838 0.19206787214147 
H5    H     0.82665321688880 0.74489957500773 0.79353216902521 
H6    H     0.59086226924236 0.28934929250535 0.30738494384098 
H7    H     0.90248553110640 0.80652198491825 0.63551725412667 
H8    H     0.55609537073546 0.54212384689100 0.31508786394686 
H9    H     0.95059906011338 0.99021021391328 0.57449383461214 
H10   H     0.55835791749427 0.71147820924554 0.21231550252364 
H11   H     0.96403136915455 0.25641556530325 0.62817437097695 
H12   H     0.59556860886608 0.75841933741513 0.01901735859555 
H13   H     0.94378601589419 0.52045936661162 0.78016974721273 
H14   H     0.64525356605224 0.66843802238159 0.79049227269150 
H15   H     0.55418892236303 0.15781096017460 0.88073258822303 
H16   H     0.89642682005660 0.72863208986521 0.00254187061141 
H17   H     0.69342114414555 0.45759652608241 0.56962260219261 
H18   H     0.84134852571764 0.81617741840917 0.22819012273368 
H19   H     0.71563741782753 0.19523933834953 0.42272948354099 
H20   H     0.80947866756358 0.76638250047181 0.42205669104084 
H21   H     0.69293089107166 0.93169360024911 0.36546302727553 
H22   H     0.51059076782513 0.90564317096810 0.80788798503490 
H23   H     0.81660866100922 0.59176106870519 0.52286559612861 
H24   H     0.63448377538541 0.75524798530724 0.42312334077130 
H25   H     0.86023375477677 0.33811514822534 0.51006872966695 
H26   H     0.55358256312524 0.69743197592390 0.57922787834241 
