data_stdin
_audit_creation_method 'critic2'
_audit_creation_date 2023-8-11
_chemical_formula_sum 'C46 H26'
_cell_formula_units_Z 2
_cell_length_a        10.8773543725
_cell_length_b        14.2720023800
_cell_length_c         9.9601764753
_cell_angle_alpha        89.9999
_cell_angle_beta        63.3351
_cell_angle_gamma        90.0000
_cell_volume          1381.786852
_space_group_crystal_system monoclinic
_space_group_IT_number 4
_space_group_name_H-M_alt 'P2_1'
_space_group_name_Hall 'P 2yb'
loop_
_symmetry_equiv_pos_site_id
_symmetry_equiv_pos_as_xyz
 1 'x,y,z'
 2 '-x,-1/2+y,-z'
loop_
_atom_site_label
_atom_site_type_symbol
_atom_site_fract_x
_atom_site_fract_y
_atom_site_fract_z
C1    C     0.16162390141269 0.99944870285101 0.85788393248270 
C2    C     0.07172570142923 0.07228566764784 0.95064092725593 
C3    C     0.23313095496903 0.93277954560324 0.90736002775203 
C4    C     0.08340612094847 0.11569614803087 0.07555688833347 
C5    C     0.18600930252762 0.90173981133636 0.06110733965581 
C6    C     0.20911757721234 0.12091505014286 0.09196373374432 
C7    C     0.04494565165122 0.90533396772939 0.17639614727125 
C8    C     0.34828988952286 0.11549287233909 0.97098052914192 
C9    C     0.18001946964126 0.99207907456366 0.70754550753632 
C10   C     0.96833645310312 0.10671326773729 0.91277732738489 
C11   C     0.35588413489236 0.89216428485537 0.79506674457535 
C12   C     0.96330296113320 0.15972434749812 0.18715844772000 
C13   C     0.28534037553776 0.86039687769811 0.10015027852299 
C14   C     0.19443634981481 0.13629962636755 0.24026770769248 
C15   C     0.92512395660281 0.90652418322585 0.14783132557596 
C16   C     0.38871157711667 0.13949229490566 0.81467202940513 
C17   C     0.02010974016424 0.89874880504900 0.32900777552939 
C18   C     0.45605640715229 0.09287285041937 0.00952058755520 
C19   C     0.08600397215608 0.03728977914531 0.66516122120987 
C20   C     0.97748267287610 0.08744208728226 0.76832772887824 
C21   C     0.29401737571705 0.94067157906200 0.59990261890215 
C22   C     0.85759824525517 0.16125474313270 0.01868390420627 
C23   C     0.38509884108913 0.89865292619099 0.64070526685113 
C24   C     0.85008601084766 0.18028534364313 0.15658397907765 
C25   C     0.44658050026383 0.84239519232638 0.83734739578390 
C26   C     0.95817200234198 0.18657257767839 0.32714607205047 
C27   C     0.41588459412966 0.83202683287434 0.98553214157686 
C28   C     0.06739076719509 0.16910433810492 0.35631530494819 
C29   C     0.79366871587349 0.92937404052018 0.26773143978897 
C30   C     0.52549381022504 0.11851663830960 0.70301265301267 
C31   C     0.25292532922088 0.84450217773963 0.25355894616086 
C32   C     0.30746542454426 0.12078227365469 0.27284174110357 
C33   C     0.92868316542081 0.87681779928388 0.01041801950644 
C34   C     0.30369997103238 0.18985153711824 0.76623085473233 
C35   C     0.12684370403097 0.86927037606400 0.36494338627937 
C36   C     0.43203220794779 0.09313465645864 0.16229687645039 
C37   C     0.88619540404700 0.91761434208568 0.44742778696299 
C38   C     0.59209821740762 0.07455442278238 0.89541801331628 
C39   C     0.77845987329920 0.93786643524950 0.41725065746825 
C40   C     0.62463154058834 0.08317378990667 0.74698157774461 
C41   C     0.81233424118669 0.87807652983030 0.98761361900799 
C42   C     0.34406004836683 0.20845244493057 0.61609647221193 
C43   C     0.67727034247700 0.93453243768793 0.23971815040252 
C44   C     0.56405882160119 0.13710848712213 0.54971794289002 
C45   C     0.68614952919462 0.91012578804228 0.10155451924400 
C46   C     0.47375062730017 0.17917639925958 0.50582447238436 
H1    H     0.02385302066573 0.84959873186742 0.92273499174488 
H2    H     0.81850958448281 0.85257247960965 0.88165958821609 
H3    H     0.09987593843216 0.02856909468510 0.55063394755856 
H4    H     0.90022666964892 0.11760908476238 0.73975821522648 
H5    H     0.31016083880027 0.93951300302529 0.48375700984845 
H6    H     0.77808415689025 0.18565544927879 0.98914015907669 
H7    H     0.47704446721541 0.86452190990158 0.55712269263523 
H8    H     0.76213448410038 0.21751040887642 0.24134856512997 
H9    H     0.54221941066846 0.81451245149686 0.74981495267306 
H10   H     0.86438433524345 0.21869362912470 0.41139121938616 
H11   H     0.48730556846905 0.79704099785261 0.01823015777845 
H12   H     0.06154800982823 0.18427333172539 0.46625960792842 
H13   H     0.33135379616432 0.81362755579267 0.27972489480010 
H14   H     0.29152822871174 0.12947378378531 0.38813274552848 
H15   H     0.20520683634519 0.21615260003989 0.84862638719350 
H16   H     0.10307700381557 0.86192849297814 0.48292569590646 
H17   H     0.51750929824245 0.07704372951037 0.18722813893938 
H18   H     0.87245817812208 0.91567546267601 0.56282264483218 
H19   H     0.66940866925888 0.05328269366964 0.93046290083272 
H20   H     0.67740311715764 0.95425567684257 0.50751220327225 
H21   H     0.72797501358569 0.06782258488001 0.66012980573529 
H22   H     0.27475962993971 0.24715231950150 0.58446854704220 
H23   H     0.57905057411685 0.95495957920580 0.33172986226535 
H24   H     0.66729868134851 0.11794597905446 0.46688433255829 
H25   H     0.59521573073145 0.91240433620283 0.08256320567907 
H26   H     0.50457109974185 0.19204938436088 0.38727003980971 
