data_stdin
_audit_creation_method 'critic2'
_audit_creation_date 2023-8-11
_chemical_formula_sum 'C46 H26'
_cell_formula_units_Z 2
_cell_length_a        11.1837562576
_cell_length_b        12.0456531544
_cell_length_c        11.0517483928
_cell_angle_alpha        77.8884
_cell_angle_beta        91.6704
_cell_angle_gamma        81.3675
_cell_volume          1436.377069
_space_group_crystal_system triclinic
_space_group_IT_number 2
_space_group_name_H-M_alt 'P-1'
_space_group_name_Hall '-P 1'
loop_
_symmetry_equiv_pos_site_id
_symmetry_equiv_pos_as_xyz
 1 'x,y,z'
 2 '-x,-y,-z'
loop_
_atom_site_label
_atom_site_type_symbol
_atom_site_fract_x
_atom_site_fract_y
_atom_site_fract_z
C1    C     0.63446020258810 0.20275818000108 0.32219929977787 
C2    C     0.64720700193413 0.32277328925906 0.29711649742980 
C3    C     0.73380286313648 0.10927109581395 0.32954653973250 
C4    C     0.74189859507479 0.37020021901859 0.22724256841390 
C5    C     0.85948092017785 0.11558531298649 0.35786716827283 
C6    C     0.80563729218919 0.31968342682140 0.13482763781749 
C7    C     0.90244256493972 0.19353233836083 0.42668819106727 
C8    C     0.75863974561931 0.24521372667489 0.06459069827407 
C9    C     0.51719064594545 0.17433459517247 0.34639104067406 
C10   C     0.55977511063916 0.40008536835333 0.34232948140250 
C11   C     0.70503693274118 0.00254777186752 0.31045249047818 
C12   C     0.77262720713454 0.47519495383277 0.24909854149366 
C13   C     0.94851318970157 0.03566728650188 0.31746481206101 
C14   C     0.92310365177231 0.34789298501602 0.10929797772086 
C15   C     0.83620451106984 0.24140487112132 0.52012375488918 
C16   C     0.63070309625410 0.24646766157038 0.03600279703525 
C17   C     0.02321802402426 0.21544661124045 0.41119379720800 
C18   C     0.84313094515094 0.17352754126324 0.00922348620279 
C19   C     0.42529431341273 0.25810870476536 0.37583483132590 
C20   C     0.44851358538072 0.36514639240198 0.38210969337171 
C21   C     0.49378259310533 0.06160410561906 0.34429210388203 
C22   C     0.58457538010423 0.51159833479199 0.34822615563117 
C23   C     0.58316440585598 0.98111711261699 0.31791778757682 
C24   C     0.69233141568706 0.54399636365068 0.31205824384245 
C25   C     0.79839285761575 0.91705350581695 0.28689946268049 
C26   C     0.88241889475578 0.51119069833974 0.20634527925289 
C27   C     0.91535434562089 0.93716159011228 0.28143109306667 
C28   C     0.96004961240839 0.44387917319283 0.14784472851216 
C29   C     0.88314051740998 0.32623201429012 0.57292645706331 
C30   C     0.59493624689985 0.15769374844191 0.98148397813421 
C31   C     0.07117949582647 0.05380368569762 0.31351667927296 
C32   C     0.00216464495462 0.28163417144404 0.04313147177816 
C33   C     0.73267872147094 0.20046281946579 0.57250594892782 
C34   C     0.53883864987575 0.33794183191938 0.04740894193511 
C35   C     0.10475081560889 0.14681265366876 0.34965792845988 
C36   C     0.96578264953008 0.19192196554564 0.00199124747113 
C37   C     0.06612603056269 0.30177115454299 0.46369130471430 
C38   C     0.80431428512994 0.08581984015749 0.95594405398268 
C39   C     0.99719211768484 0.35805314328869 0.53865982465181 
C40   C     0.68505389128094 0.07439456324769 0.94764541323906 
C41   C     0.67447299744104 0.24554410101627 0.66422099113140 
C42   C     0.41812428298788 0.33748623521512 0.01701880606060 
C43   C     0.82057397738494 0.37265702310703 0.66530454410997 
C44   C     0.47051629168828 0.15793626817688 0.95328852039658 
C45   C     0.71701627437172 0.33395848456151 0.71018225849261 
C46   C     0.38291276104303 0.24525330942887 0.97238704717497 
H1    H     0.69969790681586 0.13007365828088 0.54194925586077 
H2    H     0.59599118054131 0.21109348798393 0.70310317078709 
H3    H     0.33810243198248 0.23284493904692 0.39968794399361 
H4    H     0.38136655411222 0.42672900146426 0.41312535727584 
H5    H     0.40307100140605 0.04186850366215 0.36149791810517 
H6    H     0.51789692074334 0.56834320762292 0.38609051699343 
H7    H     0.56452002529934 0.89685672266827 0.30913404400400 
H8    H     0.71590427814555 0.62542025333674 0.32523842400782 
H9    H     0.77410347171572 0.83701890716016 0.27019896968953 
H10   H     0.90543244365370 0.59094405755097 0.22505884695168 
H11   H     0.98663757125792 0.87494994100122 0.25726468611411 
H12   H     0.04850010289958 0.46604694197537 0.12355662274673 
H13   H     0.13646080161921 0.99336841540286 0.27882388180134 
H14   H     0.09290411553359 0.30249523956302 0.02919833601529 
H15   H     0.56362729883397 0.41142168940484 0.07873516460944 
H16   H     0.19636929546897 0.16576545337957 0.33846374627802 
H17   H     0.02793539636073 0.13716342874968 0.95695973297839 
H18   H     0.15663507696416 0.32087245689537 0.44388566356352 
H19   H     0.87266518515902 0.02860348386726 0.92051399951558 
H20   H     0.03049140126060 0.42390374476667 0.57811017101519 
H21   H     0.65624134392969 0.00664583195226 0.90763921293718 
H22   H     0.35036428318137 0.40981767121137 0.02615508251363 
H23   H     0.85817715671100 0.43781984954678 0.70270779879822 
H24   H     0.44544759027159 0.08863378057576 0.91347860704839 
H25   H     0.67051142687623 0.36829919010301 0.78281705980923 
H26   H     0.28765447730771 0.24452616857949 0.94949853920870 
