data_stdin
_audit_creation_method 'critic2'
_audit_creation_date 2023-8-11
_chemical_formula_sum 'C46 H26'
_cell_formula_units_Z 4
_cell_length_a        19.9052005108
_cell_length_b        10.3371280501
_cell_length_c        14.1850447462
_cell_angle_alpha        90.0000
_cell_angle_beta        79.1412
_cell_angle_gamma        90.0004
_cell_volume          2866.490343
_space_group_crystal_system monoclinic
_space_group_IT_number 9
_space_group_name_H-M_alt 'Cc'
_space_group_name_Hall 'C -2yc'
loop_
_symmetry_equiv_pos_site_id
_symmetry_equiv_pos_as_xyz
 1 'x,y,z'
 2 'x,-y,-1/2+z'
 3 '-1/2+x,-1/2+y,z'
 4 '-1/2+x,-1/2-y,-1/2+z'
loop_
_atom_site_label
_atom_site_type_symbol
_atom_site_fract_x
_atom_site_fract_y
_atom_site_fract_z
C1    C     0.00021004249389 0.81277994896901 0.00208238040043 
C2    C     0.94073728637419 0.79547191357633 0.07631170463697 
C3    C     0.03253791571329 0.70973855286394 0.94157922275905 
C4    C     0.92449522341444 0.67622966647260 0.12857031742517 
C5    C     0.99759669291894 0.59399445469298 0.92009486376188 
C6    C     0.97438854109658 0.57914363346405 0.14163051279985 
C7    C     0.92475141266743 0.58359874321264 0.92408174030081 
C8    C     0.04670811826487 0.60247716457452 0.13684601494602 
C9    C     0.02797219077472 0.93920683478116 0.98701825015960 
C10   C     0.89689862159317 0.90351205562340 0.10142438015043 
C11   C     0.10287421513852 0.72442962395808 0.89980954007310 
C12   C     0.85482797790459 0.65475989069504 0.17143630445538 
C13   C     0.03843524664208 0.48267074418159 0.89135542990565 
C14   C     0.94978081744000 0.45091997706425 0.16292955163562 
C15   C     0.88077770685898 0.69141457974044 0.91092992074045 
C16   C     0.07610298155665 0.72627782828542 0.15562930523600 
C17   C     0.89492089792977 0.45828904422044 0.93253632921374 
C18   C     0.09189941932369 0.49478313817110 0.12049606936539 
C19   C     0.98722353088461 0.04740170862267 0.02457499979696 
C20   C     0.92152739444488 0.02988873555709 0.07320572359921 
C21   C     0.09604560672155 0.95453467647372 0.93483587062690 
C22   C     0.82965777669310 0.88300827012283 0.15525422957009 
C23   C     0.13399422363577 0.84877508606365 0.89947942472649 
C24   C     0.80792923838292 0.76049795528660 0.18221101126235 
C25   C     0.14075132864436 0.61498415060950 0.85832793883754 
C26   C     0.83296079100699 0.52861578362383 0.20373984474607 
C27   C     0.11046026299241 0.49597421205819 0.86059127092770 
C28   C     0.87831782048121 0.42798926886959 0.19253650928465 
C29   C     0.80817191725282 0.67474595994200 0.93267338424095 
C30   C     0.14872689300034 0.74299557027301 0.13332658795775 
C31   C     0.00685325740402 0.35921825182106 0.89236410497037 
C32   C     0.99666235435196 0.34587646199935 0.15605316553359 
C33   C     0.90613772738926 0.80993081841301 0.86823492757383 
C34   C     0.03698160412264 0.82989363542493 0.20322595874564 
C35   C     0.93745663777471 0.34662502792165 0.91865203947030 
C36   C     0.06538802714973 0.36653448077498 0.12860704682909 
C37   C     0.82224719752910 0.44459480391610 0.95255198332274 
C38   C     0.16419561211636 0.51436253859307 0.09967682516879 
C39   C     0.78019741189272 0.54977155404565 0.95841084566615 
C40   C     0.19168181134325 0.63509270526747 0.10108441346031 
C41   C     0.86301190807567 0.91061944425203 0.85564350764781 
C42   C     0.06641247280315 0.94708694874407 0.21875639179079 
C43   C     0.76499764659207 0.78042753292270 0.92181374518364 
C44   C     0.17764714781464 0.86477961407318 0.14806269936052 
C45   C     0.79171075033144 0.89740278213950 0.88539166971703 
C46   C     0.13720482315046 0.96648765609589 0.18812067604542 
H1    H     0.96079036131115 0.82071418857163 0.84320819123735 
H2    H     0.88420266507208 0.00003900783197 0.82179415754486 
H3    H     0.00820464122829 0.14429371646609 0.01095006488773 
H4    H     0.88834263270826 0.11263753380603 0.09542557004719 
H5    H     0.11778684595421 0.05146966725056 0.92599841151815 
H6    H     0.79538344915909 0.96556991630691 0.17118961547954 
H7    H     0.18787534763165 0.85902492409122 0.86701648844970 
H8    H     0.75487799187412 0.74229303890606 0.21567954501684 
H9    H     0.19479204281218 0.62730441617876 0.82778373641343 
H10   H     0.77936953759293 0.51288156128328 0.23526913235669 
H11   H     0.14012963747957 0.41050826472288 0.83401690534175 
H12   H     0.86113670007040 0.32979015876051 0.21170366830332 
H13   H     0.03926216824308 0.27504666054832 0.87254326997107 
H14   H     0.97639914538905 0.24865443712451 0.17065098056298 
H15   H     0.98271859733514 0.81583691470724 0.22968690277238 
H16   H     0.91349262423134 0.25141182849474 0.92425784190254 
H17   H     0.10117273526385 0.28562965437254 0.11811223936141 
H18   H     0.80095972945138 0.34738338822679 0.96361175574475 
H19   H     0.19716408796917 0.43032765073470 0.08183700564690 
H20   H     0.72490868362839 0.53851769720894 0.97759905082897 
H21   H     0.24684301556890 0.64985591918017 0.08245359127848 
H22   H     0.03482399727567 0.02420364333725 0.25594173363528 
H23   H     0.70974965432397 0.76681986928618 0.94074419481879 
H24   H     0.23289742296647 0.87626725243848 0.12827366785244 
H25   H     0.75779231663072 0.97778834221994 0.87821180921564 
H26   H     0.15994158256941 0.05983354084150 0.19900449755990 
