data_stdin
_audit_creation_method 'critic2'
_audit_creation_date 2023-8-11
_chemical_formula_sum 'C46 H26'
_cell_formula_units_Z 2
_cell_length_a        10.0934196970
_cell_length_b        15.0594604133
_cell_length_c        10.7276266642
_cell_angle_alpha       100.8325
_cell_angle_beta       116.2364
_cell_angle_gamma        95.1602
_cell_volume          1408.585127
_space_group_crystal_system triclinic
_space_group_IT_number 2
_space_group_name_H-M_alt 'P-1'
_space_group_name_Hall '-P 1'
loop_
_symmetry_equiv_pos_site_id
_symmetry_equiv_pos_as_xyz
 1 'x,y,z'
 2 '-x,-y,-z'
loop_
_atom_site_label
_atom_site_type_symbol
_atom_site_fract_x
_atom_site_fract_y
_atom_site_fract_z
C1    C     0.74506435489223 0.80961164292068 0.87524163863866 
C2    C     0.60706185453348 0.74485367567964 0.77700378645068 
C3    C     0.85923927484961 0.83993577360906 0.83753900598464 
C4    C     0.59076715322144 0.67445765484672 0.65674955978703 
C5    C     0.83124543805382 0.83974452877964 0.69285411016528 
C6    C     0.71360801829934 0.63526349013905 0.64900276791305 
C7    C     0.68712438648513 0.84114038223771 0.57489358692643 
C8    C     0.85063569763458 0.62965999701212 0.77105863104766 
C9    C     0.76764281343290 0.84834990973621 0.01629227416420 
C10   C     0.48004391267269 0.75009821207671 0.80106789023815 
C11   C     0.00835244480355 0.87423534325709 0.95186899747151 
C12   C     0.44342450820909 0.64005731328187 0.53952332269288 
C13   C     0.95713600805098 0.83944980942077 0.66509554670673 
C14   C     0.69404115886348 0.59551029595500 0.50899131610481 
C15   C     0.56700731145620 0.88007836529559 0.59048903519636 
C16   C     0.86530056990568 0.62970814173792 0.91211495579974 
C17   C     0.66575848512114 0.80879889994353 0.43263604650420 
C18   C     0.97655929754778 0.61406781935466 0.74887243771201 
C19   C     0.64235957876715 0.84220712430403 0.04460922616213 
C20   C     0.50078091221803 0.80038609779172 0.93704189127384 
C21   C     0.91465954775987 0.89405407041615 0.12635480118831 
C22   C     0.33400931020901 0.70475429674409 0.68860645140897 
C23   C     0.03307410287511 0.89991358476686 0.09652005136822 
C24   C     0.31595070683168 0.65687314989315 0.55861477385181 
C25   C     0.13104647796178 0.88504728267485 0.92056603700180 
C26   C     0.42479045230936 0.58906682144348 0.40492900529767 
C27   C     0.10646908011813 0.86218796212582 0.78153782129429 
C28   C     0.54816549316746 0.57466946279962 0.38793984064527 
C29   C     0.42230687112123 0.86508539488651 0.46757660966653 
C30   C     0.01198026735936 0.63953561996365 0.02996465428807 
C31   C     0.93373540735601 0.81611884398076 0.52093111912903 
C32   C     0.81926797378885 0.57342527816524 0.49077920596292 
C33   C     0.58797056094082 0.93901324244704 0.71991278297498 
C34   C     0.74067122048720 0.61228163650917 0.93823632499516 
C35   C     0.79091284601815 0.79426107073497 0.40846655539893 
C36   C     0.95857090241968 0.58831555353274 0.60686692280376 
C37   C     0.51946721221794 0.79385813631822 0.31252949674731 
C38   C     0.12019037477501 0.61988439869840 0.86809839684788 
C39   C     0.40012481005310 0.81748126922853 0.32964345608642 
C40   C     0.13937178948696 0.63713714161014 0.00502468513800 
C41   C     0.47206244797389 0.97607054256042 0.73083752747636 
C42   C     0.75940594207757 0.61400196260786 0.07446574765046 
C43   C     0.30413681485807 0.90180985458250 0.48216681406027 
C44   C     0.02857110328713 0.64543157109431 0.16947922512117 
C45   C     0.32753778802368 0.95627317926544 0.61165501129018 
C46   C     0.90486941804887 0.63411015129306 0.19267988317003 
H1    H     0.69838511197940 0.95599097544495 0.81305039837253 
H2    H     0.49314415505683 0.02083894723477 0.83269780109681 
H3    H     0.66088660516731 0.87479440681956 0.15209004979506 
H4    H     0.40266397332224 0.80144536810122 0.95499084882289 
H5    H     0.93123731670505 0.92206475060998 0.23468423369782 
H6    H     0.23705239878258 0.71250024720779 0.70632290721862 
H7    H     0.14714691891258 0.92964651992490 0.18159703759104 
H8    H     0.20397416343003 0.62694418827533 0.46956070952765 
H9    H     0.24469660382761 0.90939103284794 0.00949203724792 
H10   H     0.31164137132002 0.56408887683642 0.31546293596160 
H11   H     0.20030352177491 0.86525826214439 0.75694295410098 
H12   H     0.53637002267203 0.54220617347639 0.28290077128370 
H13   H     0.03144740945241 0.81255084862135 0.50280698890310 
H14   H     0.80173455012922 0.54542370200071 0.38214644386555 
H15   H     0.62764090429443 0.59645299329775 0.84880415069819 
H16   H     0.77154921476106 0.76988140291890 0.29845467251639 
H17   H     0.05604002409292 0.57543987191827 0.59270530197892 
H18   H     0.50588085919761 0.76311154697336 0.20611597268051 
H19   H     0.21457681403750 0.60970319063849 0.84691462415356 
H20   H     0.28851905529783 0.80487695814058 0.23775146025458 
H21   H     0.24955586340669 0.64290850363430 0.09585396695766 
H22   H     0.66061625617094 0.60013859159898 0.09004372561017 
H23   H     0.19425045951964 0.88748025150641 0.38756814754917 
H24   H     0.14206878786876 0.65782379051963 0.25823884517739 
H25   H     0.23598429079144 0.98540169062129 0.62010733774668 
H26   H     0.91959864235230 0.63875322141239 0.30070534789792 
