data_stdin
_audit_creation_method 'critic2'
_audit_creation_date 2023-8-11
_chemical_formula_sum 'C42 H24'
_cell_formula_units_Z 4
_cell_length_a        10.8938701880
_cell_length_b        28.5243516217
_cell_length_c        10.5424836064
_cell_angle_alpha        90.0001
_cell_angle_beta        55.8651
_cell_angle_gamma        89.9998
_cell_volume          2711.586479
_space_group_crystal_system monoclinic
_space_group_IT_number 14
_space_group_name_H-M_alt 'P2_1/c'
_space_group_name_Hall '-P 2ybc'
loop_
_symmetry_equiv_pos_site_id
_symmetry_equiv_pos_as_xyz
 1 'x,y,z'
 2 '-x,-y,-z'
 3 '-x,-1/2+y,-1/2-z'
 4 'x,-1/2-y,-1/2+z'
loop_
_atom_site_label
_atom_site_type_symbol
_atom_site_fract_x
_atom_site_fract_y
_atom_site_fract_z
C1    C     0.19430829260454 0.36058478884266 0.81807293075155 
C2    C     0.28011111562548 0.39954147988991 0.81681347303963 
C3    C     0.24748051829047 0.32717828634090 0.69454727306208 
C4    C     0.40094509965268 0.42173046864060 0.67969257624696 
C5    C     0.40160226643965 0.31514038505961 0.58394918161231 
C6    C     0.41876028827400 0.42122602043192 0.53293789756974 
C7    C     0.51748527273050 0.31847962077849 0.61221652618284 
C8    C     0.29971785114611 0.41648727489493 0.51081592551039 
C9    C     0.04681925786421 0.35531652461197 0.94978598040774 
C10   C     0.24181211623523 0.41753799117894 0.96056488700523 
C11   C     0.13872752167018 0.30345790990131 0.68283393068708 
C12   C     0.50919104355998 0.44602831419763 0.69027939259884 
C13   C     0.43955414070900 0.29481106601185 0.44298058279911 
C14   C     0.56553249882027 0.42717118393562 0.39997465828630 
C15   C     0.48908425172797 0.32533122599738 0.75976255417159 
C16   C     0.14604402049702 0.42904162472988 0.62384348337909 
C17   C     0.66838112675981 0.31006102227425 0.48861722973690 
C18   C     0.33717697606810 0.40198492989181 0.36393463680771 
C19   C     0.00204883685755 0.37931720263356 0.08807352932012 
C20   C     0.10058049004015 0.40674911910156 0.09590784946547 
C21   C     0.94459876992164 0.32637302017862 0.94227639304656 
C22   C     0.34400190899500 0.44675140894026 0.96764426227041 
C23   C     0.98741655971330 0.30368004401870 0.80925045367997 
C24   C     0.47795896129221 0.45788929663073 0.83697004587595 
C25   C     0.18137566042012 0.28012559327712 0.54437785014236 
C26   C     0.64832912073014 0.45791357825773 0.55444251663471 
C27   C     0.32669650477676 0.27942586231760 0.42344340505863 
C28   C     0.67924013819775 0.44497027053169 0.41451674131356 
C29   C     0.60246489652785 0.32793819131616 0.78188647833045 
C30   C     0.03478418234539 0.41622734964151 0.59793324147604 
C31   C     0.59113913532176 0.28720287023587 0.32230024208854 
C32   C     0.59775772233420 0.41635729576338 0.25243660556986 
C33   C     0.10000844592073 0.45700129042081 0.75452965744623 
C34   C     0.70205661387790 0.29584590885191 0.34275871378681 
C35   C     0.48814243820940 0.40094138527803 0.23674073253552 
C36   C     0.78291397869763 0.31355566823502 0.51368312841442 
C37   C     0.22337826903106 0.38988361039394 0.34165584185596 
C38   C     0.75131693144858 0.32320354237978 0.65735060197489 
C39   C     0.07709327721453 0.39500434979652 0.45638497494014 
C40   C     0.95235668350868 0.46746452214969 0.86099611661635 
C41   C     0.88376415336865 0.42640239291989 0.71018719537366 
C42   C     0.84221980242319 0.45069195985987 0.84167413050664 
H1    H     0.37551318467962 0.32723847491839 0.85889464045878 
H2    H     0.57594374072245 0.33265017072043 0.89725045707860 
H3    H     0.88988874795535 0.37390437270664 0.18847583925462 
H4    H     0.07068510055648 0.42282160086344 0.20334646509742 
H5    H     0.83059151092128 0.32449476787727 0.04185392687897 
H6    H     0.31446077396293 0.45850784742842 0.07974993121143 
H7    H     0.90708004892259 0.28401185735742 0.80001148914447 
H8    H     0.56078248575961 0.47770548200644 0.84172471302452 
H9    H     0.09575001869018 0.26426021546683 0.53493772664957 
H10   H     0.73073118133219 0.47598927570699 0.56424017033737 
H11   H     0.35929402391972 0.26443014778396 0.31376407024918 
H12   H     0.78919008084888 0.45052325590270 0.31096891476043 
H13   H     0.61583357840963 0.27313609573462 0.21426956424171 
H14   H     0.71163882018990 0.41968599609222 0.15317695482196 
H15   H     0.18309590676147 0.47102340461069 0.77024453485819 
H16   H     0.81757751928229 0.28979865725797 0.25031506169838 
H17   H     0.51322173429941 0.39026338876736 0.12523652309677 
H18   H     0.89692649321908 0.30748252242438 0.41719093403314 
H19   H     0.25650585211738 0.37615822234794 0.23024278383564 
H20   H     0.84016134083006 0.32611173535682 0.67510191330856 
H21   H     0.99046400154050 0.38488797080424 0.44007939692384 
H22   H     0.92105509363432 0.48921859528298 0.95966904496041 
H23   H     0.80094206006538 0.41500391948049 0.68965847997047 
H24   H     0.72585789589208 0.45791176720088 0.92835567542852 
