data_stdin
_audit_creation_method 'critic2'
_audit_creation_date 2023-8-11
_chemical_formula_sum 'C42 H24'
_cell_formula_units_Z 2
_cell_length_a        21.4679489533
_cell_length_b         7.1863584574
_cell_length_c        12.3632833315
_cell_angle_alpha        61.5626
_cell_angle_beta        52.3680
_cell_angle_gamma        82.8578
_cell_volume          1289.778314
_space_group_crystal_system triclinic
_space_group_IT_number 2
_space_group_name_H-M_alt 'P-1'
_space_group_name_Hall '-P 1'
loop_
_symmetry_equiv_pos_site_id
_symmetry_equiv_pos_as_xyz
 1 'x,y,z'
 2 '-x,-y,-z'
loop_
_atom_site_label
_atom_site_type_symbol
_atom_site_fract_x
_atom_site_fract_y
_atom_site_fract_z
C1    C     0.28872089678206 0.70350033937271 0.80986624550437 
C2    C     0.34717075530284 0.57158734208861 0.79296972086529 
C3    C     0.21988257689214 0.68617571465766 0.95854029572509 
C4    C     0.33027211445812 0.35688284064589 0.91800639633092 
C5    C     0.21458072565921 0.60172014217451 0.09666156933085 
C6    C     0.25062195339378 0.21087678727494 0.04939919303543 
C7    C     0.28372166863262 0.60513433075216 0.09158753759553 
C8    C     0.18443550692110 0.21364773493655 0.04587473186391 
C9    C     0.29949787048411 0.85786946606791 0.67002405694165 
C10   C     0.42615632354182 0.65814216472472 0.64321508887294 
C11   C     0.15239245764910 0.75923333789056 0.96927175309565 
C12   C     0.39682010795840 0.28474871435165 0.91083904539298 
C13   C     0.13629355894426 0.52208578832590 0.24685410833163 
C14   C     0.23730547368477 0.05167276362176 0.19163684146212 
C15   C     0.36163731926984 0.74074701875877 0.95172530772669 
C16   C     0.19423979028235 0.30143692389062 0.90225652642589 
C17   C     0.27259761346203 0.47960104991901 0.23568787845787 
C18   C     0.10450478757988 0.11319800239671 0.19284520139185 
C19   C     0.37611113834761 0.92188309514345 0.51818571825103 
C20   C     0.43943062271294 0.83766664605270 0.50630511550669 
C21   C     0.23363243099396 0.94646172194323 0.68350036766700 
C22   C     0.49062056708348 0.56143446893905 0.63149862548759 
C23   C     0.16081130902440 0.88796555831212 0.82906719472465 
C24   C     0.47718915367877 0.39017766470821 0.76405432210151 
C25   C     0.07647340479430 0.69949334498240 0.12052474429239 
C26   C     0.38195665267162 0.10918104476709 0.05054588682746 
C27   C     0.06735935134410 0.56870640855441 0.25581865688549 
C28   C     0.30450600405663 0.00855357356348 0.18963869077530 
C29   C     0.42671482141746 0.73507611840816 0.95013314539257 
C30   C     0.12533994888873 0.34147610689854 0.90881262991168 
C31   C     0.12715033255335 0.40103585663274 0.38856535996720 
C32   C     0.15693065890849 0.93594096352321 0.33443964460771 
C33   C     0.26793557241775 0.33589770787608 0.75636451544096 
C34   C     0.19274659800925 0.37096627538532 0.38337404134866 
C35   C     0.09236742805342 0.97620346488651 0.33651008444958 
C36   C     0.34058729327065 0.47346169123513 0.23031326958762 
C37   C     0.03649904108218 0.14756915492107 0.19604443660240 
C38   C     0.41688439481174 0.59524250906261 0.08952115727953 
C39   C     0.04669040287868 0.26854340847321 0.05904651805839 
C40   C     0.27588304456635 0.42899490982971 0.62046463001258 
C41   C     0.13551115615668 0.44274840856594 0.76702786616414 
C42   C     0.20995283298931 0.48992575564975 0.62419445534853 
H1    H     0.36979109436745 0.85352528325466 0.84426309131039 
H2    H     0.48593391297409 0.84101799125470 0.84077854332037 
H3    H     0.38381714047748 0.04569857346740 0.41269257721833 
H4    H     0.49982216589443 0.89770419076948 0.39204604987283 
H5    H     0.24187069528609 0.05550181511302 0.57527280890951 
H6    H     0.55086538133282 0.63140507972841 0.51622584741509 
H7    H     0.10915087313728 0.94723566929170 0.83978212465952 
H8    H     0.52717949285746 0.32480326517685 0.75796729932351 
H9    H     0.02553101874522 0.75487123479293 0.12604029906664 
H10   H     0.43344559280840 0.06189856132636 0.04567287671527 
H11   H     0.00805620203361 0.50765671435523 0.37229640891442 
H12   H     0.29310748405740 0.88620206209642 0.29931824102420 
H13   H     0.06610006326582 0.33049107880398 0.50202712711185 
H14   H     0.14776647755797 0.81913610507790 0.44281538091742 
H15   H     0.31866287124049 0.28431954565472 0.75250574060218 
H16   H     0.18464340672701 0.27366647601623 0.49252371555357 
H17   H     0.03067758364850 0.89683839840372 0.44733210588691 
H18   H     0.33133996948848 0.37326469287950 0.34062221484155 
H19   H     0.97601128681362 0.07836480646110 0.31124922112335 
H20   H     0.46881609379222 0.58717926477085 0.08648195003902 
H21   H     0.99477624039226 0.30220482340311 0.06254069060842 
H22   H     0.33330770658228 0.45341547455039 0.51002826215197 
H23   H     0.08290895274124 0.48008224397367 0.77347974596456 
H24   H     0.21692815666964 0.56508275919838 0.51627835761352 
