data_stdin
_audit_creation_method 'critic2'
_audit_creation_date 2023-8-11
_chemical_formula_sum 'C42 H24'
_cell_formula_units_Z 2
_cell_length_a        10.2046064200
_cell_length_b         9.9292224800
_cell_length_c        14.2133422381
_cell_angle_alpha        90.0000
_cell_angle_beta        73.5047
_cell_angle_gamma        90.0000
_cell_volume          1380.877392
_space_group_crystal_system monoclinic
_space_group_IT_number 7
_space_group_name_H-M_alt 'Pc'
_space_group_name_Hall 'P -2yc'
loop_
_symmetry_equiv_pos_site_id
_symmetry_equiv_pos_as_xyz
 1 'x,y,z'
 2 'x,-y,-1/2+z'
loop_
_atom_site_label
_atom_site_type_symbol
_atom_site_fract_x
_atom_site_fract_y
_atom_site_fract_z
C1    C     0.01445363211482 0.67376878841631 0.01621065295104 
C2    C     0.08638430815305 0.67396364002443 0.08987669336297 
C3    C     0.07669713700630 0.70895632945528 0.91486305701604 
C4    C     0.20490777382612 0.75593318011613 0.08467783749974 
C5    C     0.22043688361278 0.69432996406797 0.86471460159528 
C6    C     0.23527675079093 0.88078407665469 0.03061729987666 
C7    C     0.31026461641726 0.59927810814206 0.89335032603162 
C8    C     0.13523283987961 0.96876011269799 0.00776319512809 
C9    C     0.87473802427805 0.63466616270508 0.04481797919905 
C10   C     0.03832993301872 0.58716788587207 0.17178955809358 
C11   C     0.98894359128722 0.75583223180613 0.85981423993717 
C12   C     0.29782733684226 0.70904461904415 0.13539956154582 
C13   C     0.27449926930491 0.76763230189895 0.77633278148597 
C14   C     0.37528838840895 0.92085612242614 0.99881736426985 
C15   C     0.26183637173330 0.48818787106114 0.95637960603388 
C16   C     0.99213468943314 0.97610348340606 0.06411879262049 
C17   C     0.45460621021701 0.60853995409562 0.84888756373406 
C18   C     0.18207450379972 0.06208344769858 0.92948856762721 
C19   C     0.82123586430292 0.56354038821208 0.13482714587953 
C20   C     0.90427118260264 0.53156046086138 0.19226102445723 
C21   C     0.79109186538638 0.66790195738839 0.98313637814157 
C22   C     0.12584605514254 0.55574866743340 0.23097689502401 
C23   C     0.84489164756189 0.73682331291628 0.89731690499547 
C24   C     0.25589225386282 0.60639850445615 0.20782618331282 
C25   C     0.04610375792334 0.81676623335608 0.76659095813662 
C26   C     0.43165416308204 0.76492708454608 0.11294629211696 
C27   C     0.18459407014036 0.83162466895341 0.72973990264579 
C28   C     0.47199477914758 0.86019789149763 0.04093961433177 
C29   C     0.35017141051627 0.40088531254304 0.98348257513310 
C30   C     0.89927780218139 0.05415291959329 0.02728041402061 
C31   C     0.41875341202276 0.77182380321211 0.73193600747007 
C32   C     0.41764522467232 0.02224075249629 0.92564460515661 
C33   C     0.94023623983100 0.92000712086150 0.15917788605789 
C34   C     0.50654679692132 0.70087199615030 0.76996007015135 
C35   C     0.32473445723311 0.08371370529105 0.88700252856271 
C36   C     0.54321043445240 0.51919553405433 0.87901317278468 
C37   C     0.08688608380014 0.13978559398391 0.89547328266569 
C38   C     0.49254451733453 0.41881289298718 0.94689489744780 
C39   C     0.94986930278281 0.13210804464613 0.94017771838999 
C40   C     0.80334673713833 0.92811182495987 0.21048318980163 
C41   C     0.75926284912583 0.05968736508032 0.08079353327147 
C42   C     0.71053282564568 0.99547919484167 0.17017746821817 
H1    H     0.15285804204270 0.46895790533118 0.98270636456643 
H2    H     0.30868766030308 0.31747105834943 0.03251930829842 
H3    H     0.71498305564408 0.53058874845189 0.15460881871295 
H4    H     0.86889580632504 0.46707578206415 0.25647964051229 
H5    H     0.68300014550377 0.64197786915302 0.00699596918672 
H6    H     0.08965471108974 0.48602366056855 0.29177133532430 
H7    H     0.77939144432772 0.77276298131502 0.85388672039806 
H8    H     0.32706768792076 0.57318741218160 0.24742315237195 
H9    H     0.97747722635261 0.85430561727796 0.72646083565594 
H10   H     0.50273367372037 0.72632167248073 0.15101120573878 
H11   H     0.22797129504594 0.88630155465274 0.66148822762481 
H12   H     0.57763286482506 0.89466193534533 0.01752381571821 
H13   H     0.45674062332174 0.83440994669624 0.66687054208105 
H14   H     0.52602013074610 0.04703081319842 0.89963469360939 
H15   H     0.01000629751715 0.87300691823796 0.19423931763866 
H16   H     0.61671594658251 0.70850528902295 0.73723363938726 
H17   H     0.35702262468617 0.15622905644468 0.82743960123756 
H18   H     0.65291289583087 0.52944672473193 0.84622709172074 
H19   H     0.12676699642547 0.20688293594941 0.83338627863259 
H20   H     0.56213119221581 0.35149872713730 0.96976511172435 
H21   H     0.87809780226559 0.19133529889520 0.91319378586978 
H22   H     0.76818811070868 0.88346991710918 0.28333053733802 
H23   H     0.69059341754917 0.11866532273457 0.05049945257857 
H24   H     0.60260726237081 0.00051913873093 0.21042619326202 
