data_stdin
_audit_creation_method 'critic2'
_audit_creation_date 2023-8-11
_chemical_formula_sum 'C42 H24'
_cell_formula_units_Z 4
_cell_length_a        18.1131863818
_cell_length_b        10.7617055308
_cell_length_c        14.5881310386
_cell_angle_alpha        90.0003
_cell_angle_beta        66.3396
_cell_angle_gamma        90.0007
_cell_volume          2604.610310
_space_group_crystal_system monoclinic
_space_group_IT_number 14
_space_group_name_H-M_alt 'P2_1/c'
_space_group_name_Hall '-P 2ybc'
loop_
_symmetry_equiv_pos_site_id
_symmetry_equiv_pos_as_xyz
 1 'x,y,z'
 2 '-x,-y,-z'
 3 '-x,-1/2+y,-1/2-z'
 4 'x,-1/2-y,-1/2+z'
loop_
_atom_site_label
_atom_site_type_symbol
_atom_site_fract_x
_atom_site_fract_y
_atom_site_fract_z
C1    C     0.24713450612306 0.92332074786400 0.72292748075719 
C2    C     0.32849328110626 0.90090286358556 0.65110525180059 
C3    C     0.18390107599693 0.83077661044502 0.75546834601476 
C4    C     0.35015167882478 0.80703729162080 0.57399797787619 
C5    C     0.19654323999657 0.69787347484021 0.75344987380751 
C6    C     0.29524731041438 0.75485872986215 0.53453307457360 
C7    C     0.26847590096139 0.63865843838786 0.75355733497157 
C8    C     0.22513864433112 0.81648393576778 0.53156439178515 
C9    C     0.22873382272758 0.04441136264398 0.76518846665979 
C10   C     0.39112733628168 0.97525661239716 0.65776380885579 
C11   C     0.10284233396672 0.87510642054451 0.79365288921481 
C12   C     0.43056539887579 0.76073797642187 0.53676118188768 
C13   C     0.13267210222010 0.61889835369654 0.75656827121297 
C14   C     0.31305827961652 0.63284707941631 0.49325879938604 
C15   C     0.32389717478729 0.69966527988519 0.78427086069410 
C16   C     0.21623180869020 0.95020546500736 0.52671323036701 
C17   C     0.28221773022952 0.50991923524901 0.72799252023164 
C18   C     0.16407447811097 0.74075569780877 0.52228767423038 
C19   C     0.29260744380065 0.12568231119858 0.75961485814139 
C20   C     0.37120059087169 0.08784450640294 0.71408267684481 
C21   C     0.14676448825530 0.08242820052020 0.81449177201663 
C22   C     0.47273951564086 0.93605942790353 0.60842542510956 
C23   C     0.08599596607287 0.00235315362553 0.82152755775941 
C24   C     0.49087021411022 0.82689164051373 0.55612656730164 
C25   C     0.03901410704683 0.79154501995021 0.80474647286475 
C26   C     0.45012616834355 0.64753911267909 0.48166850151503 
C27   C     0.05445398022609 0.66882963297082 0.78015278252488 
C28   C     0.39128244652248 0.58125796902848 0.46731841017317 
C29   C     0.39357984459758 0.64202149105334 0.77933662654470 
C30   C     0.14062421865313 0.99998908098100 0.53446762584461 
C31   C     0.14654159577267 0.48898668434177 0.73699275417167 
C32   C     0.25315458305900 0.56309637875418 0.47626481832138 
C33   C     0.28095717078157 0.03506570885443 0.50451956812520 
C34   C     0.22032931479569 0.43761725548414 0.71667657866483 
C35   C     0.17863684407624 0.61264921644767 0.49775577257678 
C36   C     0.35558147472511 0.45453590618326 0.71930720145055 
C37   C     0.08880829773663 0.79352820043166 0.53280749760040 
C38   C     0.41138914995449 0.51977054659708 0.74261971413575 
C39   C     0.07602247490446 0.91844790083541 0.54328097751898 
C40   C     0.27052142669993 0.16156485735305 0.49827315520544 
C41   C     0.13137563061835 0.12982607787175 0.52800150363597 
C42   C     0.19458932381092 0.21031246816699 0.51232319156219 
H1    H     0.31067474975741 0.79306614249111 0.81425362985280 
H2    H     0.43412823783701 0.69228186063713 0.80472809639500 
H3    H     0.27710892647272 0.21508527878747 0.79755949049506 
H4    H     0.41995779809713 0.14511843640898 0.71677046655587 
H5    H     0.13397532463878 0.17717554593683 0.84298007279131 
H6    H     0.51994510456172 0.99303871172376 0.61509567680040 
H7    H     0.02335213200476 0.03293270477245 0.85272929743667 
H8    H     0.55248603379927 0.79211873308674 0.52353979065380 
H9    H     0.97778228603305 0.82768380944558 0.83099379874346 
H10   H     0.51136180020681 0.61172503077297 0.45601080960917 
H11   H     0.00610409756498 0.60651813499304 0.78338487865680 
H12   H     0.40387725648887 0.48965957183393 0.43251966415647 
H13   H     0.09689344292146 0.43212361194046 0.73659400609847 
H14   H     0.26812953414386 0.46947268295764 0.44649665955831 
H15   H     0.34061929088915 0.99968576046360 0.49004260171229 
H16   H     0.23169921001270 0.34005751554720 0.69582120560245 
H17   H     0.13140116300794 0.55791626156225 0.48872967956100 
H18   H     0.36651525661247 0.35792558100324 0.69552784496692 
H19   H     0.04201888708802 0.73113689088551 0.53097093717846 
H20   H     0.46741749774121 0.47520267740980 0.73543913568809 
H21   H     0.01787967601278 0.95812421342967 0.55379274565383 
H22   H     0.32181258459567 0.22386294406594 0.48062086542368 
H23   H     0.07310814697573 0.16483824505020 0.53443099976450 
H24   H     0.18631521218062 0.31012069640466 0.50862601421346 
