data_stdin
_audit_creation_method 'critic2'
_audit_creation_date 2023-8-11
_chemical_formula_sum 'C42 H24'
_cell_formula_units_Z 4
_cell_length_a        10.8830823123
_cell_length_b        28.9676961307
_cell_length_c         9.9444643673
_cell_angle_alpha        90.0052
_cell_angle_beta        59.9999
_cell_angle_gamma        90.0023
_cell_volume          2715.048821
_space_group_crystal_system monoclinic
_space_group_IT_number 9
_space_group_name_H-M_alt 'Cc'
_space_group_name_Hall 'C -2yc'
loop_
_symmetry_equiv_pos_site_id
_symmetry_equiv_pos_as_xyz
 1 'x,y,z'
 2 'x,-y,-1/2+z'
 3 '-1/2+x,-1/2+y,z'
 4 '-1/2+x,-1/2-y,-1/2+z'
loop_
_atom_site_label
_atom_site_type_symbol
_atom_site_fract_x
_atom_site_fract_y
_atom_site_fract_z
C1    C     0.99341758546638 0.58088177014958 0.00268282632804 
C2    C     0.97599522744276 0.60151049650848 0.14329311850629 
C3    C     0.12377908251906 0.58220032514838 0.85464288429145 
C4    C     0.06013092066119 0.63960904939061 0.14686522397755 
C5    C     0.26450970186955 0.58609873317275 0.83464367957336 
C6    C     0.13048638852097 0.67315841846016 0.02382199039188 
C7    C     0.30303211766490 0.57145364548165 0.94855930811198 
C8    C     0.08672809156613 0.68575239319498 0.91306987922039 
C9    C     0.87459912343186 0.55760585380788 0.01101271201603 
C10   C     0.86947020764794 0.58305066732054 0.28747946566858 
C11   C     0.11260431118224 0.57733567669083 0.71835887153420 
C12   C     0.07468128613859 0.64408921774266 0.28071369100405 
C13   C     0.37563934782381 0.60151388635160 0.68809372258988 
C14   C     0.25083176301210 0.69638133202316 0.01308556921702 
C15   C     0.21728545023369 0.54225898581671 0.07593639973092 
C16   C     0.94226221169617 0.68219799239156 0.94204640942284 
C17   C     0.43989298884808 0.58338892751729 0.92568333460737 
C18   C     0.18980192439737 0.70648480879985 0.77130434164138 
C19   C     0.75730127600173 0.54543616979928 0.15861232850319 
C20   C     0.75958006902458 0.55505709740679 0.29212415712335 
C21   C     0.87411769427978 0.54677637263585 0.87164357804623 
C22   C     0.87420997287208 0.59288953897236 0.42528291730768 
C23   C     0.98545055515668 0.55938233503337 0.73062067627887 
C24   C     0.97974673590143 0.61999127515826 0.41945300411464 
C25   C     0.23016269976432 0.58857040996522 0.57039627259174 
C26   C     0.18422566301758 0.67243258120884 0.27473527241963 
C27   C     0.35443501154092 0.60368723093435 0.55801191463728 
C28   C     0.27512873438015 0.69534876955614 0.14114193622708 
C29   C     0.25743049679729 0.52940436859022 0.18230275934779 
C30   C     0.91509905272276 0.69062691458028 0.81727770747800 
C31   C     0.51098808481631 0.61296505430951 0.66910890765239 
C32   C     0.34675798524711 0.72003619195081 0.87402102603649 
C33   C     0.82262033221450 0.67482673124378 0.09140905574639 
C34   C     0.54031200766023 0.60598732019421 0.78592055827439 
C35   C     0.32239381054815 0.72153496464483 0.75192897203800 
C36   C     0.47769405191450 0.57056079408905 0.03779169498068 
C37   C     0.15875798386876 0.71452220085461 0.64984143038171 
C38   C     0.38723226055895 0.54448801937972 0.16581288189892 
C39   C     0.02742936397321 0.70554050398951 0.67031473767396 
C40   C     0.68709713605123 0.67132044764866 0.11361650462197 
C41   C     0.77549651634229 0.68619548140006 0.84243571099332 
C42   C     0.66323220065375 0.67567023695480 0.98749314063126 
H1    H     0.11849316968218 0.52883413736301 0.08996874834109 
H2    H     0.18862300641329 0.50690117816958 0.27826849782661 
H3    H     0.66881264831865 0.52664433272478 0.16256438917345 
H4    H     0.67455523124945 0.54319789213988 0.40443561728348 
H5    H     0.78205707373116 0.52954986835213 0.87931871211968 
H6    H     0.79555231438970 0.57685123133974 0.53348503767895 
H7    H     0.98187715740994 0.55339228534071 0.62451779683489 
H8    H     0.98950151321034 0.62517548827242 0.52213962393828 
H9    H     0.21854587381454 0.58555061088528 0.46814267167076 
H10   H     0.19784582255625 0.67375177588842 0.37586361731703 
H11   H     0.44258535850657 0.61457518791619 0.44629443398083 
H12   H     0.36453638507337 0.71463203727002 0.13295607696302 
H13   H     0.59079497807764 0.62752294047718 0.55844877137753 
H14   H     0.44200892650771 0.73549920885832 0.86484914021906 
H15   H     0.83674260527383 0.67309442942962 0.19175635361828 
H16   H     0.64286267565175 0.61550631694893 0.77193388981002 
H17   H     0.39975711704756 0.73678205533394 0.64152949035830 
H18   H     0.58085313689465 0.58134041347891 0.01945972531742 
H19   H     0.24206929145158 0.72891393722980 0.54096240034516 
H20   H     0.41656306307545 0.53450537916764 0.25168903075331 
H21   H     0.00453439113055 0.71162893764839 0.57692530483371 
H22   H     0.59779702090235 0.66611286065966 0.23029815506192 
H23   H     0.75811303490791 0.69214286202640 0.74489422292327 
H24   H     0.55673517443855 0.67185044846643 0.00522827483556 
