data_stdin
_audit_creation_method 'critic2'
_audit_creation_date 2023-8-11
_chemical_formula_sum 'C42 H24'
_cell_formula_units_Z 2
_cell_length_a        10.9225132900
_cell_length_b        17.6347184150
_cell_length_c         7.8784428657
_cell_angle_alpha        66.6279
_cell_angle_beta        73.0892
_cell_angle_gamma        89.5688
_cell_volume          1322.670132
_space_group_crystal_system triclinic
_space_group_IT_number 2
_space_group_name_H-M_alt 'P-1'
_space_group_name_Hall '-P 1'
loop_
_symmetry_equiv_pos_site_id
_symmetry_equiv_pos_as_xyz
 1 'x,y,z'
 2 '-x,-y,-z'
loop_
_atom_site_label
_atom_site_type_symbol
_atom_site_fract_x
_atom_site_fract_y
_atom_site_fract_z
C1    C     0.69952014281871 0.69644397033271 0.40227812950751 
C2    C     0.75684765557954 0.65791632847294 0.55529267208315 
C3    C     0.70134382296707 0.78538908784576 0.29975786037166 
C4    C     0.77822378829258 0.69623596795968 0.67747547498704 
C5    C     0.79904409340016 0.84829771107245 0.27034428813996 
C6    C     0.70962878605084 0.76224315045654 0.71094181681054 
C7    C     0.92946099672792 0.83386702350121 0.27434550796697 
C8    C     0.58033953715938 0.77683474169810 0.70293750300748 
C9    C     0.63535034109667 0.64273893864757 0.35120940232125 
C10   C     0.79287366410789 0.57656371959519 0.58932527601413 
C11   C     0.59968410594376 0.81234620959953 0.21848397563555 
C12   C     0.87419618743438 0.66747121091141 0.77010434356608 
C13   C     0.76933974504091 0.93156907330272 0.22024795517968 
C14   C     0.77443050941228 0.81591579818602 0.76179064467639 
C15   C     0.98773943613726 0.76494022750987 0.25158355138312 
C16   C     0.48135470538615 0.71345254650216 0.73620091464327 
C17   C     0.00821110995827 0.89534720087760 0.28492693841327 
C18   C     0.54276261062474 0.85693643990924 0.67928523144747 
C19   C     0.65875153158253 0.55792863763192 0.40872090450765 
C20   C     0.74322408421115 0.52776945191548 0.51123716463022 
C21   C     0.54815813560744 0.67404315800723 0.24308917042370 
C22   C     0.87680100265138 0.54438959391347 0.70294192999729 
C23   C     0.52391729554765 0.75490207098850 0.19233204774490 
C24   C     0.92278882280719 0.59117256044913 0.77939216033583 
C25   C     0.57778697434101 0.89737452222971 0.15611717656195 
C26   C     0.92234491204509 0.71560169656905 0.85076913606920 
C27   C     0.65615862208013 0.95426538652919 0.16676490799817 
C28   C     0.88129697077368 0.79108115898478 0.83135737249123 
C29   C     0.11217606243319 0.75320707332300 0.25682893050955 
C30   C     0.36328756134102 0.73730084414589 0.69752735707558 
C31   C     0.85284234303062 0.99284898919056 0.22254257874796 
C32   C     0.72947884162918 0.89299953315688 0.75004904723663 
C33   C     0.48991075031065 0.62709300843243 0.82282887170537 
C34   C     0.96394467089345 0.97360702556759 0.26716227754609 
C35   C     0.62189193114853 0.91541872631222 0.69663098227210 
C36   C     0.13297046134654 0.87998047225712 0.29918296211679 
C37   C     0.42253317349684 0.87805188043429 0.64717479168277 
C38   C     0.18406150259076 0.80961677305710 0.28805556881868 
C39   C     0.33805049109654 0.82159770478958 0.64681506684776 
C40   C     0.39363478559554 0.56824253358829 0.85393397930841 
C41   C     0.26883650670689 0.67619254050665 0.72120295368439 
C42   C     0.28381447379437 0.59279781085663 0.79659083429607 
H1    H     0.93405555926927 0.72106355194570 0.22639671286825 
H2    H     0.15489452575102 0.70023382334687 0.23609726957437 
H3    H     0.61115941975280 0.51842378975757 0.36418942127169 
H4    H     0.76886120425033 0.46483686829171 0.54267776000909 
H5    H     0.49840445282530 0.63187682652558 0.20749204679067 
H6    H     0.90613854560729 0.48301452128102 0.72281932057457 
H7    H     0.45286606640915 0.77819222268646 0.11783161351634 
H8    H     0.99380182284684 0.56961227915953 0.85513592650636 
H9    H     0.49667376246483 0.91576550612744 0.10094261495587 
H10   H     0.99612726900586 0.69286602203223 0.92011579246976 
H11   H     0.63777233427359 0.01892823935612 0.12462512726446 
H12   H     0.92440039619249 0.83119886056570 0.87938703072809 
H13   H     0.82488959194259 0.05529236414898 0.18950241156626 
H14   H     0.78199659684507 0.93339931563374 0.78634749956766 
H15   H     0.57377358544451 0.60688456519582 0.86773652099078 
H16   H     0.02393664368872 0.01928951525023 0.27835290181312 
H17   H     0.59004857029331 0.97583953882435 0.68076227432828 
H18   H     0.18984782342523 0.92618427816456 0.31386237660734 
H19   H     0.39989119658649 0.94100109153953 0.62246812298517 
H20   H     0.27989216075757 0.79852973234236 0.30012506562344 
H21   H     0.24742942730531 0.83849071730981 0.61880565121200 
H22   H     0.40273330194042 0.50242760870082 0.92310473811543 
H23   H     0.18307628827505 0.69670034582082 0.68087054056103 
H24   H     0.21065636992476 0.54590221614387 0.81597267308807 
