data_stdin
_audit_creation_method 'critic2'
_audit_creation_date 2023-8-11
_chemical_formula_sum 'C42 H24'
_cell_formula_units_Z 8
_cell_length_a        14.2145611125
_cell_length_b        10.0211075256
_cell_length_c        39.1931551624
_cell_angle_alpha        89.9908
_cell_angle_beta        82.9037
_cell_angle_gamma        89.9990
_cell_volume          5540.128895
_space_group_crystal_system monoclinic
_space_group_IT_number 15
_space_group_name_H-M_alt 'C2/c'
_space_group_name_Hall '-C 2yc'
loop_
_symmetry_equiv_pos_site_id
_symmetry_equiv_pos_as_xyz
 1 'x,y,z'
 2 '-1/2-x,-1/2-y,-1/2-z'
 3 '-x,y,-1/2-z'
 4 '-1/2+x,-1/2-y,z'
 5 '-1/2+x,-1/2+y,-1/2+z'
 6 '-x,-y,-z'
 7 '-1/2-x,-1/2+y,-z'
 8 'x,-y,-1/2+z'
loop_
_atom_site_label
_atom_site_type_symbol
_atom_site_fract_x
_atom_site_fract_y
_atom_site_fract_z
C1    C     0.32448883940309 0.92548853422117 0.65577669192442 
C2    C     0.41911441992861 0.92467466134658 0.63763734827366 
C3    C     0.24076736741310 0.95739617531377 0.63991289301103 
C4    C     0.44833250780030 0.00119566269293 0.60687962101402 
C5    C     0.23234633758781 0.94280264307538 0.60368167758420 
C6    C     0.40386680972946 0.12371842566291 0.59766217900791 
C7    C     0.28656199706375 0.84851566142872 0.58096862821097 
C8    C     0.35120496188951 0.21501331551766 0.62152269182991 
C9    C     0.31325586622443 0.89175207355518 0.69134830210254 
C10   C     0.48789311516305 0.84268692390558 0.65080583175889 
C11   C     0.15949101610794 0.00254356802192 0.66182716354786 
C12   C     0.52627342805031 0.95115640290761 0.58419107715983 
C13   C     0.15975207335018 0.01590040907197 0.59008111629937 
C14   C     0.41473478325392 0.15864551746040 0.56206675324620 
C15   C     0.33547756762322 0.73819050488005 0.59307261745043 
C16   C     0.36458491648927 0.22901137867464 0.65750155896788 
C17   C     0.28287593818672 0.85722226139222 0.54467515624151 
C18   C     0.28752542638965 0.30532260170736 0.60827524668528 
C19   C     0.38897817689281 0.82790968532553 0.70572965216837 
C20   C     0.47091221110124 0.79498663639117 0.68531718944166 
C21   C     0.22653370931924 0.92271761296521 0.71212858149023 
C22   C     0.57255357321003 0.80853746243014 0.62922315020515 
C23   C     0.15470678659234 0.98522651755848 0.69811953469887 
C24   C     0.58667969819697 0.85218132345153 0.59591653732128 
C25   C     0.08245559382262 0.06177927459816 0.64741773312618 
C26   C     0.54401683719487 0.00109926153843 0.55000412733196 
C27   C     0.08643366375291 0.07806505667339 0.61262647601859 
C28   C     0.48531626067767 0.09499901253952 0.53867625163286 
C29   C     0.38563132696389 0.64948054717326 0.57075689746786 
C30   C     0.30058509433859 0.31104690678614 0.67950863504134 
C31   C     0.15789673335378 0.02227163141193 0.55376662954460 
C32   C     0.35537330032510 0.25773054473609 0.54984285699043 
C33   C     0.44335406347126 0.17526265069520 0.67170848911135 
C34   C     0.22063624855172 0.95117876702405 0.53165952405471 
C35   C     0.28873648586824 0.32176924500385 0.57212197789887 
C36   C     0.33584832951028 0.76622283746268 0.52226259079056 
C37   C     0.22455965024700 0.38528841606137 0.63096734794326 
C38   C     0.38808023748875 0.66542184974313 0.53494589738739 
C39   C     0.22826256999042 0.38438701643241 0.66555458764646 
C40   C     0.45374821139268 0.19011655875603 0.70609613910592 
C41   C     0.31273926133109 0.32485576852058 0.71460867025341 
C42   C     0.38695107963155 0.26353972690017 0.72804575085697 
H1    H     0.33201442144065 0.72052426916430 0.62051212136970 
H2    H     0.42229614852694 0.56616450475645 0.58106759547366 
H3    H     0.37875781959771 0.80129950930911 0.73291132650516 
H4    H     0.52597100594223 0.73600696058677 0.69523143724227 
H5    H     0.22002371701076 0.90035338644692 0.73954214213229 
H6    H     0.62330862693934 0.74254592820844 0.63924294704359 
H7    H     0.09085712715246 0.01800014910083 0.71420514232887 
H8    H     0.64706836172736 0.81731779304155 0.57841190599363 
H9    H     0.02196823267420 0.09767383862518 0.66464940286713 
H10   H     0.60261901940612 0.95889983787091 0.53279304927902 
H11   H     0.03084086405734 0.13233712463171 0.60167396367858 
H12   H     0.49400875262405 0.12632278287465 0.51187491924020 
H13   H     0.10502338268356 0.08659933063822 0.54425899855964 
H14   H     0.36263959172019 0.27792089079476 0.52231108744799 
H15   H     0.49867745508408 0.12447433206375 0.65512368042640 
H16   H     0.22074159744281 0.96042343712681 0.50394905052355 
H17   H     0.23919113928595 0.39236154863185 0.56298838569436 
H18   H     0.33270194770180 0.77547276836573 0.49472112451848 
H19   H     0.17412539694683 0.44863834666827 0.61986791794031 
H20   H     0.42875686017627 0.59603002168106 0.51749854903873 
H21   H     0.17955755888666 0.44527961479583 0.68271292783618 
H22   H     0.51497447728872 0.14575449440088 0.71589249450569 
H23   H     0.26232636768824 0.38555425370639 0.73106915219749 
H24   H     0.39437863807271 0.27478132177886 0.75519869276181 
