data_stdin
_audit_creation_method 'critic2'
_audit_creation_date 2023-8-11
_chemical_formula_sum 'C42 H24'
_cell_formula_units_Z 4
_cell_length_a        15.1320743100
_cell_length_b        18.1465257000
_cell_length_c         9.9035360503
_cell_angle_alpha        89.9996
_cell_angle_beta        90.0000
_cell_angle_gamma        90.0000
_cell_volume          2719.457276
_space_group_crystal_system orthorhombic
_space_group_IT_number 19
_space_group_name_H-M_alt 'P2_12_12_1'
_space_group_name_Hall 'P 2ac 2ab'
loop_
_symmetry_equiv_pos_site_id
_symmetry_equiv_pos_as_xyz
 1 'x,y,z'
 2 '-x,-1/2+y,-1/2-z'
 3 '-1/2-x,-y,-1/2+z'
 4 '-1/2+x,-1/2-y,-z'
loop_
_atom_site_label
_atom_site_type_symbol
_atom_site_fract_x
_atom_site_fract_y
_atom_site_fract_z
C1    C     0.94888390343711 0.99629149710073 0.08194047223116 
C2    C     0.98585570199325 0.97913761025537 0.95137507837333 
C3    C     0.92463933702240 0.06970163678923 0.12400735128587 
C4    C     0.03532515820098 0.03076818133862 0.87031663621729 
C5    C     0.90108965898887 0.12903087084915 0.03336332084703 
C6    C     0.08406332585716 0.09289209761177 0.92378822601001 
C7    C     0.86368528832254 0.11874122530905 0.89959701146587 
C8    C     0.12100868591207 0.09671818506773 0.05824839165075 
C9    C     0.93636122106530 0.93720063761143 0.17430422731409 
C10   C     0.97362568951223 0.90663894563907 0.90037939709193 
C11   C     0.92350430599779 0.08412410988385 0.26552955451400 
C12   C     0.03748937601392 0.01871107572071 0.72851877454152 
C13   C     0.90951651066149 0.20237852402817 0.08190272613444 
C14   C     0.10066883140436 0.15304630563578 0.83461996263574 
C15   C     0.82555029132179 0.05161581351048 0.85518706240114 
C16   C     0.14378113003409 0.03288049357638 0.13974878601158 
C17   C     0.85760071040773 0.18064290767152 0.81047368673052 
C18   C     0.14487974546147 0.16718837231606 0.10959073614200 
C19   C     0.93751061694647 0.86327105021550 0.12566011128028 
C20   C     0.94884185727220 0.84908485269626 0.99097670237158 
C21   C     0.92189839587073 0.95288106038294 0.31335457667833 
C22   C     0.98779126993345 0.89272982120393 0.76039053114312 
C23   C     0.92217256987011 0.02417167840798 0.35851927686797 
C24   C     0.01270725820391 0.94860914653771 0.67565431163937 
C25   C     0.92329905023534 0.15837890248717 0.31240465141330 
C26   C     0.06447740661220 0.07677129603506 0.64107226390286 
C27   C     0.92295248978371 0.21558595150016 0.22234889600069 
C28   C     0.08852789950833 0.14359812203243 0.69305839804418 
C29   C     0.79130180895889 0.04377262870866 0.72657306105686 
C30   C     0.16643436874383 0.04296224078263 0.27880529406499 
C31   C     0.90151348243467 0.26298510908579 0.99073068765920 
C32   C     0.13347189434863 0.22090490213254 0.88643819795563 
C33   C     0.15399676513815 0.96105385248258 0.08553274544474 
C34   C     0.87986726602512 0.25237045185794 0.85836324517905 
C35   C     0.14911127147347 0.22919732255668 0.02164541732965 
C36   C     0.82442376158182 0.17082514045179 0.67791507611591 
C37   C     0.16969772692882 0.17530486985677 0.24792496281329 
C38   C     0.79275227312796 0.10334696552819 0.63536049931750 
C39   C     0.17581354285388 0.11577446082622 0.33159857814689 
C40   C     0.17736199257926 0.90189856987865 0.16580788371714 
C41   C     0.18621810040535 0.98095915211866 0.36030823675793 
C42   C     0.19109033790462 0.91121926862087 0.30536905759171 
H1    H     0.82157371186020 0.00548515113513 0.92465180268005 
H2    H     0.76178015202616 0.99152830614716 0.69668185562192 
H3    H     0.92565708319920 0.81861983448812 0.19680193343980 
H4    H     0.94368802537307 0.79310986810580 0.95202588115130 
H5    H     0.91284636688008 0.90710117402030 0.38321451359782 
H6    H     0.97605986990660 0.83752780394431 0.72134816386436 
H7    H     0.91660008808138 0.03643041775336 0.46577152513963 
H8    H     0.01822187552525 0.93968047378116 0.56722626830433 
H9    H     0.92642509167847 0.16826186568030 0.42084792736323 
H10   H     0.06290099212717 0.06752706971517 0.53257857769524 
H11   H     0.92827155258591 0.27235330525510 0.25710743907263 
H12   H     0.10430369227610 0.18948037393026 0.62632608271679 
H13   H     0.91280540999800 0.31829691662477 0.02974019915643 
H14   H     0.14594743479134 0.26610112542118 0.81657535014099 
H15   H     0.14610555818818 0.95262564062242 0.97779826695816 
H16   H     0.87411248242860 0.29899241485416 0.78972669345616 
H17   H     0.17164191005286 0.28174115612732 0.06237228109782 
H18   H     0.82253177239895 0.21849476857652 0.61087720156854 
H19   H     0.18463638967141 0.23049762122685 0.28467256898269 
H20   H     0.76629525311490 0.09692768735983 0.53380874043051 
H21   H     0.19372613378982 0.12230069157002 0.43744915710979 
H22   H     0.18610514466505 0.84775723886515 0.12011335619580 
H23   H     0.20130652807569 0.98969659857832 0.46661954543471 
H24   H     0.20944003877583 0.86445928736843 0.36808807957532 
