data_stdin
_audit_creation_method 'critic2'
_audit_creation_date 2023-8-11
_chemical_formula_sum 'C42 H24'
_cell_formula_units_Z 4
_cell_length_a        20.1908418490
_cell_length_b         9.8991688401
_cell_length_c        14.2858013064
_cell_angle_alpha        90.0001
_cell_angle_beta        74.5630
_cell_angle_gamma        90.0002
_cell_volume          2752.329154
_space_group_crystal_system monoclinic
_space_group_IT_number 14
_space_group_name_H-M_alt 'P2_1/c'
_space_group_name_Hall '-P 2ybc'
loop_
_symmetry_equiv_pos_site_id
_symmetry_equiv_pos_as_xyz
 1 'x,y,z'
 2 '-x,-y,-z'
 3 '-x,-1/2+y,-1/2-z'
 4 'x,-1/2-y,-1/2+z'
loop_
_atom_site_label
_atom_site_type_symbol
_atom_site_fract_x
_atom_site_fract_y
_atom_site_fract_z
C1    C     0.81010700687671 0.42387451986924 0.51421331223959 
C2    C     0.77494777677225 0.42273590808068 0.43876401978482 
C3    C     0.77790835049828 0.45980042302617 0.61390877973845 
C4    C     0.71518147486076 0.50376464356851 0.44078302000802 
C5    C     0.70539789500813 0.44604538613739 0.66075630475252 
C6    C     0.69844332797720 0.62873933956116 0.49422456386578 
C7    C     0.66023327978784 0.35103347630411 0.63075900611143 
C8    C     0.74730502966941 0.71873427696701 0.52047061412221 
C9    C     0.88036056053537 0.38461627858688 0.48927927214714 
C10   C     0.80005681663730 0.33463525908342 0.35864469596642 
C11   C     0.82136033782796 0.50656855435653 0.67098579853128 
C12   C     0.66936594458428 0.45456735618157 0.38821528597923 
C13   C     0.67768832559103 0.52083741521641 0.74725422356060 
C14   C     0.62765444036699 0.66665016956596 0.52233795874257 
C15   C     0.68459666978202 0.23848358557214 0.56991783954223 
C16   C     0.81941795757812 0.73123933544282 0.46761575682855 
C17   C     0.58754856455062 0.36212479620956 0.67148788197483 
C18   C     0.72159921010992 0.81051632716723 0.59834950747136 
C19   C     0.90813845796224 0.31196359805171 0.40130697849165 
C20   C     0.86731245974168 0.27864850788113 0.34201977542393 
C21   C     0.92159559489092 0.41786397917045 0.55289737962441 
C22   C     0.75700646605929 0.30149873566507 0.29754354843743 
C23   C     0.89384241695393 0.48687141351148 0.63730861204403 
C24   C     0.69150055151305 0.35123732458905 0.31734963385668 
C25   C     0.79199686339086 0.56764610113726 0.76275449721872 
C26   C     0.60171960940560 0.50843821195392 0.40727509646512 
C27   C     0.72239115370302 0.58404668476066 0.79603989447783 
C28   C     0.58018763517312 0.60430939158794 0.47776685225776 
C29   C     0.64016013826978 0.15102011503973 0.54172351550057 
C30   C     0.86372767616864 0.81524684729995 0.50622424140868 
C31   C     0.60499503811372 0.52809293897197 0.78721271337783 
C32   C     0.60425554792964 0.76674250468443 0.59515212137819 
C33   C     0.84757513468981 0.67614265706145 0.37379534101737 
C34   C     0.56118407787980 0.45749855233354 0.74732523461986 
C35   C     0.64950830805607 0.82911081106838 0.63708331501769 
C36   C     0.54294963296892 0.27227461501383 0.64070593678950 
C37   C     0.76749114613136 0.89047794953076 0.63590123367017 
C38   C     0.56860591902341 0.17019459621384 0.57507044671658 
C39   C     0.83647689075163 0.88932887759397 0.59363865353371 
C40   C     0.91558387568145 0.69559065029333 0.32350616682896 
C41   C     0.93339126821221 0.83199876285872 0.45395444515342 
C42   C     0.95948676812497 0.77293285122380 0.36409811091693 
H1    H     0.73934014317812 0.21830275957467 0.54624038529117 
H2    H     0.66084468929540 0.06629528513367 0.49446321817227 
H3    H     0.96145538012844 0.27859489244148 0.38495565663288 
H4    H     0.88568557259657 0.21222178370908 0.27970242050582 
H5    H     0.97584395829771 0.39129027547791 0.53163461612563 
H6    H     0.77597069723125 0.23109626668926 0.23807397898966 
H7    H     0.92607288701307 0.52174496442702 0.68276750610700 
H8    H     0.65633984896558 0.31674783992409 0.27634361688511 
H9    H     0.82608304916142 0.60409652816395 0.80459196080044 
H10   H     0.56674406412539 0.46713161638532 0.36813092417749 
H11   H     0.70015786287825 0.63930295014928 0.86303472056170 
H12   H     0.52690807150699 0.63794162954061 0.49848267184004 
H13   H     0.58558433287336 0.59335154259758 0.84998287974907 
H14   H     0.54943033850012 0.78885618064918 0.61837013092670 
H15   H     0.81445879829894 0.62188037662470 0.33822933071751 
H16   H     0.50575078188886 0.46847119992196 0.77585253338566 
H17   H     0.63200231949385 0.90034676649423 0.69665567225513 
H18   H     0.48775532865543 0.28335299379095 0.67170821204981 
H19   H     0.74577097759279 0.95473649545681 0.69831358170856 
H20   H     0.53390156024039 0.10191760849352 0.55142459164534 
H21   H     0.87104976186932 0.95132512757682 0.62260741285179 
H22   H     0.93455308937576 0.65288218479193 0.25100471861855 
H23   H     0.96597460597089 0.89563212428015 0.48546586262781 
H24   H     0.01293520710591 0.78850316291033 0.32438328305245 
