data_stdin
_audit_creation_method 'critic2'
_audit_creation_date 2023-8-11
_chemical_formula_sum 'C42 H24'
_cell_formula_units_Z 8
_cell_length_a         9.5852680004
_cell_length_b        15.1135956577
_cell_length_c        37.6059692330
_cell_angle_alpha        89.9988
_cell_angle_beta        89.9993
_cell_angle_gamma        90.0006
_cell_volume          5447.896466
_space_group_crystal_system orthorhombic
_space_group_IT_number 61
_space_group_name_H-M_alt 'Pbca'
_space_group_name_Hall '-P 2ac 2ab'
loop_
_symmetry_equiv_pos_site_id
_symmetry_equiv_pos_as_xyz
 1 'x,y,z'
 2 '-x,-y,-z'
 3 '-1/2-x,-y,-1/2+z'
 4 '-1/2+x,y,-1/2-z'
 5 '-1/2+x,-1/2-y,-z'
 6 '-1/2-x,-1/2+y,z'
 7 '-x,-1/2+y,-1/2-z'
 8 'x,-1/2-y,-1/2+z'
loop_
_atom_site_label
_atom_site_type_symbol
_atom_site_fract_x
_atom_site_fract_y
_atom_site_fract_z
C1    C     0.83408556344002 0.87390648062374 0.37942521438022 
C2    C     0.89186043456957 0.83323569257259 0.34800252998095 
C3    C     0.89164845454007 0.95123273919432 0.39654611400923 
C4    C     0.03663061112875 0.83948564080383 0.33770774078385 
C5    C     0.97380019115066 0.01775863245009 0.37868183195020 
C6    C     0.15010624057244 0.85727992919326 0.36201388319522 
C7    C     0.96784980797442 0.03579091407973 0.34078596792490 
C8    C     0.14973290530751 0.83679953877575 0.39963080073206 
C9    C     0.71345794117427 0.83450344936779 0.39464189528217 
C10   C     0.80103654088721 0.78238704663119 0.32623767654849 
C11   C     0.86461679988377 0.96210559088482 0.43356918389561 
C12   C     0.06898007046825 0.82779444001727 0.30107059559589 
C13   C     0.06064167695038 0.07294965221452 0.39973635295766 
C14   C     0.27262520760482 0.89692561760323 0.34745391909664 
C15   C     0.85410075876176 0.01066923021557 0.31892685842065 
C16   C     0.06661093522531 0.76739168101997 0.41604941398663 
C17   C     0.07485778847087 0.08879191119033 0.32493941310249 
C18   C     0.24591277244906 0.88302684542875 0.42165410019970 
C19   C     0.63080883230696 0.77573243248384 0.37382194168446 
C20   C     0.66817601948009 0.75618374036845 0.33958706829993 
C21   C     0.67811481773425 0.85377137323112 0.43062980358152 
C22   C     0.84435826952389 0.75789233475001 0.29133797316192 
C23   C     0.75867560598848 0.91033944479912 0.45027642048235 
C24   C     0.96978822555864 0.78642448321454 0.27819975679380 
C25   C     0.94270674196746 0.02510301489644 0.45344156987256 
C26   C     0.20012752896259 0.85719695070703 0.28774539523090 
C27   C     0.04424277533102 0.07468456441821 0.43738102204729 
C28   C     0.29441516875167 0.89662799567121 0.30997575357157 
C29   C     0.85220612047472 0.02892445861192 0.28287353027939 
C30   C     0.06288638416548 0.76069004257425 0.45404365433559 
C31   C     0.16253650389342 0.12809337666547 0.38317013323689 
C32   C     0.37210611990903 0.93714370592232 0.37038747479441 
C33   C     0.99782005595013 0.69981983766197 0.39655636434774 
C34   C     0.17493244537050 0.13202232905860 0.34705556480129 
C35   C     0.35296335018898 0.93611144793598 0.40636847010583 
C36   C     0.07337566900752 0.10384002545098 0.28777238090401 
C37   C     0.23956810962439 0.87409414153394 0.45939637610154 
C38   C     0.96504850422431 0.07348474335673 0.26680056123609 
C39   C     0.14809358643288 0.81728628023236 0.47524521282641 
C40   C     0.91930410111379 0.63516796655127 0.41312412310150 
C41   C     0.97994042840109 0.69477867827880 0.47042388050203 
C42   C     0.90717510486511 0.63371672336253 0.45042640326697 
H1    H     0.76508158778820 0.97756657534710 0.33086891140166 
H2    H     0.76267937732956 0.00937378578654 0.26685902913556 
H3    H     0.53483929819784 0.74944407694917 0.38506137945724 
H4    H     0.60026634192764 0.71675734976627 0.32269498926162 
H5    H     0.58945611790280 0.81938614743762 0.44234980243235 
H6    H     0.77282299394332 0.71892419469238 0.27515701333304 
H7    H     0.73977449181308 0.91918146070028 0.47865203852154 
H8    H     0.99810012792928 0.77487589536506 0.25052181550674 
H9    H     0.92260363059820 0.03133277584257 0.48182788260110 
H10   H     0.22154049660815 0.85104080986286 0.25943010442060 
H11   H     0.11037706230646 0.11907138672153 0.45284015939792 
H12   H     0.39029863362556 0.92541283508471 0.29953018064639 
H13   H     0.23185063373833 0.16616310147477 0.40018619603854 
H14   H     0.46130828570813 0.97091217129823 0.35864684948795 
H15   H     0.00835736024828 0.69767269188118 0.36786968698009 
H16   H     0.25517550370138 0.17277101690748 0.33464974646591 
H17   H     0.42364893127014 0.97185820252536 0.42389481557290 
H18   H     0.15787492716920 0.14272166025930 0.27627801390562 
H19   H     0.31069900212709 0.91430681281398 0.47521647781778 
H20   H     0.96453327516985 0.08677057141755 0.23831412043379 
H21   H     0.14379810422280 0.81119689809214 0.50409915614710 
H22   H     0.86620572967427 0.58510907564710 0.39727627685529 
H23   H     0.97532705439753 0.69312563629381 0.49936879760310 
H24   H     0.84308901752840 0.58337922336868 0.46309610863871 
