data_stdin
_audit_creation_method 'critic2'
_audit_creation_date 2023-8-11
_chemical_formula_sum 'C42 H24'
_cell_formula_units_Z 8
_cell_length_a        19.2999985643
_cell_length_b        10.1984650453
_cell_length_c        28.8030956050
_cell_angle_alpha        89.9984
_cell_angle_beta        72.9518
_cell_angle_gamma        89.9983
_cell_volume          5420.203561
_space_group_crystal_system monoclinic
_space_group_IT_number 15
_space_group_name_H-M_alt 'C2/c'
_space_group_name_Hall '-C 2yc'
loop_
_symmetry_equiv_pos_site_id
_symmetry_equiv_pos_as_xyz
 1 'x,y,z'
 2 '-x,-y,-z'
 3 '-1/2-x,-1/2+y,-1/2-z'
 4 '-1/2+x,-1/2-y,-1/2+z'
 5 '-1/2+x,-1/2+y,z'
 6 '-1/2-x,-1/2-y,-z'
 7 '-x,y,-1/2-z'
 8 'x,-y,-1/2+z'
loop_
_atom_site_label
_atom_site_type_symbol
_atom_site_fract_x
_atom_site_fract_y
_atom_site_fract_z
C1    C     0.30637908184137 0.33449082737951 0.88910215415734 
C2    C     0.30329007743457 0.31913999559231 0.83988017965001 
C3    C     0.24350233028340 0.34236908852577 0.93109502379682 
C4    C     0.24341417937212 0.36172576781240 0.82309318225262 
C5    C     0.17307773989517 0.28865741310672 0.93372503526896 
C6    C     0.19344111063119 0.46507161912895 0.84554377999188 
C7    C     0.16133454787832 0.17814685948914 0.90516380602637 
C8    C     0.20990413280021 0.57198352340840 0.87354498174279 
C9    C     0.37604897362086 0.34135855763254 0.89647457078564 
C10   C     0.36305602576532 0.25769476534381 0.80582693370800 
C11   C     0.25214958809290 0.40451885014896 0.97338327531075 
C12   C     0.23317924945599 0.29798610397863 0.78165709916392 
C13   C     0.11192202638502 0.34039743544761 0.96944075501233 
C14   C     0.12348742403924 0.46323127116588 0.83815853836822 
C15   C     0.21712541848688 0.09090010551640 0.88026411356248 
C16   C     0.28234675996688 0.62197725977722 0.86801272923143 
C17   C     0.08905590170589 0.14677846187313 0.90514335963863 
C18   C     0.15109680566102 0.64114747748948 0.90554004315265 
C19   C     0.43782039791250 0.29698274393360 0.85909255826914 
C20   C     0.43015271225213 0.24630268498765 0.81687259049251 
C21   C     0.38290925732457 0.38989801435026 0.94126010218565 
C22   C     0.35469379577812 0.20829059213370 0.76148993998023 
C23   C     0.32291545146940 0.42920581031427 0.97722421285279 
C24   C     0.28983457432186 0.21949824400133 0.75155859743341 
C25   C     0.18980124171111 0.44031592821362 0.01182163791559 
C26   C     0.16626593565213 0.31241312476666 0.77069876430409 
C27   C     0.12182475009349 0.41923054961356 0.00784724947669 
C28   C     0.11128164004036 0.38461484232714 0.80041597819355 
C29   C     0.20403641850384 0.98857613972991 0.85250982467617 
C30   C     0.29338376446081 0.71215766519257 0.90325389184789 
C31   C     0.04048589600983 0.30557072548255 0.96898526820284 
C32   C     0.06704342801937 0.54334495822679 0.86737774733270 
C33   C     0.34222816631229 0.59557352535809 0.82686689952829 
C34   C     0.02930283132462 0.21538722447008 0.93689251155373 
C35   C     0.07959076683139 0.62342876685774 0.90214935012364 
C36   C     0.07725631782842 0.04397152646495 0.87522890199679 
C37   C     0.16394267106494 0.73112236487807 0.94009009918301 
C38   C     0.13392318774139 0.96744097717467 0.84841516546251 
C39   C     0.23263646332571 0.75934044093112 0.94091033074461 
C40   C     0.41014113615118 0.64734211178870 0.82231407782856 
C41   C     0.36382999833988 0.76096927885076 0.89842638656514 
C42   C     0.42164306654551 0.72883367720307 0.85880313756658 
H1    H     0.27137613412561 0.10359681710671 0.88345232466454 
H2    H     0.24826291773242 0.92358878570790 0.83400231843166 
H3    H     0.49056025222749 0.29822616352296 0.86567618835155 
H4    H     0.47613910037045 0.20199174185820 0.79012391457015 
H5    H     0.43670452553629 0.39758533720192 0.94606171343074 
H6    H     0.39955295789667 0.15580268237483 0.73661489702748 
H7    H     0.32818809538536 0.47260750164381 0.01056343846382 
H8    H     0.28157393579626 0.17260129693089 0.71964612589881 
H9    H     0.19755352594994 0.48680157475141 0.04393807949186 
H10   H     0.15895993305852 0.26121531817124 0.73932516610049 
H11   H     0.07403815769128 0.45405511699381 0.03575397463259 
H12   H     0.05828209497055 0.38849649144993 0.79415301044258 
H13   H     0.99480082571830 0.35321499391580 0.99495817896686 
H14   H     0.01343270846085 0.53787756207005 0.86210365909123 
H15   H     0.33456945972463 0.53538124705232 0.79768254544080 
H16   H     0.97469214706280 0.18977536667301 0.93652294846285 
H17   H     0.03588085609407 0.68083707401790 0.92595028969498 
H18   H     0.02205136429769 0.02600343943052 0.87423517763088 
H19   H     0.11742009468973 0.77742796920076 0.96580156079926 
H20   H     0.12458526385432 0.88894684294220 0.82532543157181 
H21   H     0.24200536291445 0.82442895110979 0.96837198156293 
H22   H     0.45484677279002 0.62473874972210 0.79016315268581 
H23   H     0.37133562777861 0.82693027987388 0.92634005934763 
H24   H     0.47551183237048 0.76706699022416 0.85552405426021 
