data_stdin
_audit_creation_method 'critic2'
_audit_creation_date 2023-8-11
_chemical_formula_sum 'C42 H24'
_cell_formula_units_Z 4
_cell_length_a        10.4827303577
_cell_length_b        14.0157504500
_cell_length_c        19.0846704628
_cell_angle_alpha        90.0000
_cell_angle_beta        77.7718
_cell_angle_gamma        90.0000
_cell_volume          2740.366116
_space_group_crystal_system monoclinic
_space_group_IT_number 14
_space_group_name_H-M_alt 'P2_1/c'
_space_group_name_Hall '-P 2ybc'
loop_
_symmetry_equiv_pos_site_id
_symmetry_equiv_pos_as_xyz
 1 'x,y,z'
 2 '-x,-y,-z'
 3 '-x,-1/2+y,-1/2-z'
 4 'x,-1/2-y,-1/2+z'
loop_
_atom_site_label
_atom_site_type_symbol
_atom_site_fract_x
_atom_site_fract_y
_atom_site_fract_z
C1    C     0.17464282632989 0.42392386430624 0.20240084126071 
C2    C     0.08226670099896 0.46172572567885 0.26325980411042 
C3    C     0.31526788442481 0.43374002959232 0.19096643146132 
C4    C     0.10856834596775 0.54091524944632 0.30648407410298 
C5    C     0.38857527323464 0.44725138490672 0.24662944923907 
C6    C     0.20475712319484 0.61421420450823 0.28188164754032 
C7    C     0.34483689551185 0.41722312744444 0.32079578053297 
C8    C     0.24633971773258 0.64446758653490 0.20822929687010 
C9    C     0.12292515446565 0.37332643733786 0.14994219402619 
C10   C     0.95721416741780 0.41779455118065 0.28209617033548 
C11   C     0.38749057298683 0.42759979958732 0.11868826979790 
C12   C     0.03550146810740 0.54687364328984 0.37821206638840 
C13   C     0.51749294811579 0.48453445733614 0.22650387175530 
C14   C     0.26033844695098 0.66090158902677 0.33473376239039 
C15   C     0.24205348824534 0.35106684938762 0.34357477219160 
C16   C     0.16820585493157 0.63442548601845 0.15438773502568 
C17   C     0.41664672776117 0.44713343905197 0.37303129207168 
C18   C     0.36726086835353 0.69349793423090 0.18831917152088 
C19   C     0.99079486738990 0.34147772740337 0.16587872011603 
C20   C     0.91322787853171 0.35748053225199 0.23198048093186 
C21   C     0.20304588802601 0.35559877015154 0.08111282253755 
C22   C     0.87654270697436 0.43452645933766 0.35110522251423 
C23   C     0.32834324242479 0.38882754522482 0.06427657883971 
C24   C     0.91887531866274 0.49221818980613 0.39937966769411 
C25   C     0.51957688804940 0.45887639243013 0.10086581000212 
C26   C     0.08208167922304 0.60530690102953 0.42859029901664 
C27   C     0.57961824702219 0.49237127112947 0.15284296165883 
C28   C     0.19778004548318 0.65333124258858 0.40854740518909 
C29   C     0.20472444464510 0.32267430458794 0.41440730150560 
C30   C     0.22777238591989 0.64984583091759 0.08057400487552 
C31   C     0.58756738155043 0.51171277537500 0.27985367060946 
C32   C     0.37578483078977 0.71632886773222 0.31312309316854 
C33   C     0.03196040442717 0.61719321137272 0.17140623680428 
C34   C     0.53602447621495 0.49825580311133 0.35094155603808 
C35   C     0.43248763137931 0.72629319939520 0.24203706945363 
C36   C     0.37431963425429 0.41916761199711 0.44548190371036 
C37   C     0.42125623017442 0.71334686176163 0.11457762202280 
C38   C     0.26917832330989 0.35874041633992 0.46648656663817 
C39   C     0.35665567796464 0.68832618924438 0.06225356417099 
C40   C     0.96248182961103 0.60273674870701 0.11837543076602 
C41   C     0.15564879408484 0.63118374610063 0.02712872934340 
C42   C     0.02567139434180 0.60554582674625 0.04546749272080 
H1    H     0.19238132624212 0.32016101253679 0.30453172604479 
H2    H     0.12523095093140 0.27165511628914 0.42916364517128 
H3    H     0.95485494549320 0.30051621153023 0.12556629198477 
H4    H     0.81530561108472 0.32771874630763 0.24639822917267 
H5    H     0.16055140752600 0.31873392032130 0.04137147913375 
H6    H     0.78366763446564 0.39690346399743 0.36534175568939 
H7    H     0.38666292768913 0.38246770950449 0.00999338175999 
H8    H     0.86258014504312 0.49946283369110 0.45399962717227 
H9    H     0.57045704300644 0.45768830677584 0.04485490727946 
H10   H     0.02755469757461 0.60704025675184 0.48388930503767 
H11   H     0.67849839652415 0.52060632329083 0.13903323132872 
H12   H     0.24013299833661 0.69026851379898 0.44837503428866 
H13   H     0.68375403763728 0.54380075421203 0.26240949837249 
H14   H     0.41993230975306 0.74903558491928 0.35405313169184 
H15   H     0.98105585577167 0.61648613057559 0.22721761134664 
H16   H     0.58911290072930 0.52119847455563 0.39126044083757 
H17   H     0.52455724922454 0.76398402338050 0.22533890215879 
H18   H     0.42994136429980 0.44361056344574 0.48424953084464 
H19   H     0.51583372990156 0.74861936080302 0.10101774765119 
H20   H     0.23926894295769 0.33701999792199 0.52232871752361 
H21   H     0.40014435977790 0.70172705901914 0.00599375398335 
H22   H     0.85790831082838 0.58965506274880 0.13321387593555 
H23   H     0.20416714589276 0.63852702235694 0.97093185925328 
H24   H     0.97183627162915 0.58961810608835 0.00402708840605 
