data_stdin
_audit_creation_method 'critic2'
_audit_creation_date 2023-8-11
_chemical_formula_sum 'C42 H24'
_cell_formula_units_Z 2
_cell_length_a        10.0713311789
_cell_length_b        13.6463035500
_cell_length_c        10.8324857437
_cell_angle_alpha        90.0000
_cell_angle_beta        62.8562
_cell_angle_gamma        90.0000
_cell_volume          1324.810193
_space_group_crystal_system monoclinic
_space_group_IT_number 4
_space_group_name_H-M_alt 'P2_1'
_space_group_name_Hall 'P 2yb'
loop_
_symmetry_equiv_pos_site_id
_symmetry_equiv_pos_as_xyz
 1 'x,y,z'
 2 '-x,-1/2+y,-z'
loop_
_atom_site_label
_atom_site_type_symbol
_atom_site_fract_x
_atom_site_fract_y
_atom_site_fract_z
C1    C     0.46350717500437 0.00037657545475 0.06619236629604 
C2    C     0.47025685962316 0.92470525769957 0.15608826395668 
C3    C     0.32667489336523 0.04065013408870 0.07475044824733 
C4    C     0.35367681460597 0.85344850134126 0.22603696510356 
C5    C     0.18631476567510 0.04418659877792 0.19945857165217 
C6    C     0.24806559776598 0.82230949809211 0.17790267551170 
C7    C     0.17153446886325 0.03957695050627 0.33913512062493 
C8    C     0.27396507322206 0.82567400746920 0.03517001123458 
C9    C     0.60093221005075 0.03739749418746 0.96172399063496 
C10   C     0.60012066833778 0.91929339423427 0.17599175602719 
C11   C     0.33323381635640 0.08182074456128 0.95114931114289 
C12   C     0.34341926868910 0.81100071233303 0.34997471597657 
C13   C     0.05375194489252 0.06055304832923 0.18646387562741 
C14   C     0.10949527279239 0.78323680461583 0.27885209797838 
C15   C     0.28903466469681 0.06341672935704 0.37157390372348 
C16   C     0.42021776527892 0.82405465293614 0.91570619541684 
C17   C     0.02836550007477 0.01930618248936 0.45222615469867 
C18   C     0.14776275306325 0.82365662923386 0.00932911452780 
C19   C     0.73474225406022 0.02148841522072 0.97327029961961 
C20   C     0.73193575282068 0.96971387878552 0.08270313484413 
C21   C     0.60333148398559 0.08782206478216 0.84563366029350 
C22   C     0.59617595788357 0.86370045699097 0.28923564911296 
C23   C     0.47406488428009 0.10144911231195 0.83569462340719 
C24   C     0.46761870750061 0.81741239001883 0.37930357982673 
C25   C     0.19927994819907 0.10715987857780 0.94542973465763 
C26   C     0.21074494012112 0.76106683134958 0.44180381643823 
C27   C     0.06329866929476 0.09233375508638 0.05740605728703 
C28   C     0.09340700513531 0.75391056610537 0.41120558911156 
C29   C     0.27059557877034 0.05683770825339 0.50594352360401 
C30   C     0.43328214982377 0.84817202610129 0.78209400876328 
C31   C     0.91110837370060 0.04706559211949 0.30371251428031 
C32   C     0.98869338106542 0.77198233595106 0.24586961887080 
C33   C     0.55077725343239 0.79222850683442 0.92217428946991 
C34   C     0.89915155487486 0.02022079715978 0.42982200747657 
C35   C     0.00489131308085 0.79834733830701 0.11788541777395 
C36   C     0.01424857349192 0.00797482214708 0.58762678638979 
C37   C     0.16449509767249 0.84427242815444 0.87364088083432 
C38   C     0.13374355539184 0.02522940705318 0.61440983517237 
C39   C     0.30183235498655 0.86186845565451 0.76544013563553 
C40   C     0.68871532111735 0.79340441190125 0.80670576641652 
C41   C     0.57656464509464 0.85275281471223 0.66646157206293 
C42   C     0.70282207432126 0.82712853547139 0.67838724828508 
H1    H     0.39415902475980 0.08990305590070 0.28996300369854 
H2    H     0.36279399083829 0.07640128144409 0.52766029944963 
H3    H     0.83762582544676 0.05480861767587 0.89625479452934 
H4    H     0.83184273121185 0.96245280152591 0.09666974080932 
H5    H     0.70974344274250 0.11256268036765 0.76349896963803 
H6    H     0.69526027107032 0.86267345198141 0.30554543985188 
H7    H     0.47588704291020 0.13406002999433 0.74325962093361 
H8    H     0.46019125932931 0.78044928537151 0.47140528980148 
H9    H     0.20734106006203 0.13754192977024 0.84927674327497 
H10   H     0.20252248036622 0.73106362343118 0.53820147608192 
H11   H     0.96071762373990 0.10942105870617 0.05148502180345 
H12   H     0.98891030468876 0.72030674246670 0.48424574553121 
H13   H     0.81166829907253 0.05762454262335 0.28948600427918 
H14   H     0.88313759723716 0.74382027059219 0.32586208571810 
H15   H     0.54187893012570 0.76410789818526 0.01921946192342 
H16   H     0.79057847070356 0.00673946473485 0.51775766542606 
H17   H     0.91123991656282 0.79492935935806 0.09374461082358 
H18   H     0.90560094003379 0.98808239368217 0.67109262498541 
H19   H     0.06435452700286 0.84685247073413 0.85900103917647 
H20   H     0.12124234012052 0.01757711698185 0.71925872015723 
H21   H     0.31315591724762 0.88182478194468 0.66373823971264 
H22   H     0.78634406733506 0.76715362508189 0.81522079696889 
H23   H     0.58485282928648 0.87554260386849 0.56679542708111 
H24   H     0.81210038007202 0.83076844810235 0.58857452229792 
