data_stdin
_audit_creation_method 'critic2'
_audit_creation_date 2023-8-11
_chemical_formula_sum 'C42 H24'
_cell_formula_units_Z 8
_cell_length_a        13.6841276075
_cell_length_b        10.7882063807
_cell_length_c        37.0918260028
_cell_angle_alpha        90.0006
_cell_angle_beta        84.1625
_cell_angle_gamma        90.0003
_cell_volume          5447.366628
_space_group_crystal_system monoclinic
_space_group_IT_number 15
_space_group_name_H-M_alt 'C2/c'
_space_group_name_Hall '-C 2yc'
loop_
_symmetry_equiv_pos_site_id
_symmetry_equiv_pos_as_xyz
 1 'x,y,z'
 2 '-1/2-x,-1/2-y,-1/2-z'
 3 '-x,y,-1/2-z'
 4 '-1/2+x,-1/2-y,z'
 5 '-1/2+x,-1/2+y,-1/2+z'
 6 '-x,-y,-z'
 7 '-1/2-x,-1/2+y,-z'
 8 'x,-y,-1/2+z'
loop_
_atom_site_label
_atom_site_type_symbol
_atom_site_fract_x
_atom_site_fract_y
_atom_site_fract_z
C1    C     0.04798985983899 0.46126579006781 0.37398781989987 
C2    C     0.11664032967879 0.42673298958632 0.34340580007558 
C3    C     0.06172459970586 0.56341680042538 0.39828461994569 
C4    C     0.22070876983992 0.45187916977260 0.34086508002290 
C5    C     0.12099896019191 0.67238111980506 0.38920698000262 
C6    C     0.27519636012212 0.47424798015631 0.37173002990789 
C7    C     0.14324964979071 0.72091915994019 0.35277060993247 
C8    C     0.25000515998693 0.42704459996152 0.40809504993296 
C9    C     0.96239794008568 0.38649017990661 0.38102913006350 
C10   C     0.07988772981838 0.36010119033934 0.31450903010367 
C11   C     0.01240955006422 0.55561280984439 0.43401280002218 
C12   C     0.27323822997177 0.45422042997405 0.30564489987450 
C13   C     0.15383069029398 0.74289474993346 0.41811472991535 
C14   C     0.36265052968297 0.54635448978967 0.36526752999553 
C15   C     0.09031874010764 0.68684916046283 0.32335915998551 
C16   C     0.19224206024486 0.31587031038053 0.41681358005448 
C17   C     0.21573525968856 0.81650447996140 0.34643055008972 
C18   C     0.29153436020806 0.48787767014541 0.43702105995901 
C19   C     0.93335168981565 0.30600942018940 0.35354183989361 
C20   C     0.98626360004766 0.30137420990378 0.32024519993571 
C21   C     0.90723856028373 0.39084924991808 0.41569993006857 
C22   C     0.13848941966480 0.34961315004227 0.28062707004279 
C23   C     0.93618965985074 0.46684813970457 0.44211088991094 
C24   C     0.22966628960397 0.40282316029808 0.27567759012683 
C25   C     0.03985050025300 0.63598679000731 0.46171431989650 
C26   C     0.36862772968091 0.50850722026655 0.30069142997172 
C27   C     0.11325467036911 0.72111300997215 0.45446957996438 
C28   C     0.40808134027281 0.56232613007285 0.32927575009159 
C29   C     0.11246015991907 0.73681186977234 0.28916796995786 
C30   C     0.16302976982542 0.28658691992457 0.45403582002038 
C31   C     0.22583387967066 0.83770560996765 0.41075762992716 
C32   C     0.40518909001187 0.60124176955692 0.39483342001269 
C33   C     0.16916583996749 0.22728279962972 0.39068944994691 
C34   C     0.25990488995902 0.86880779961847 0.37612817995681 
C35   C     0.36554122980381 0.57970338024171 0.42955419994107 
C36   C     0.23838454034109 0.86434415963877 0.31100919005512 
C37   C     0.26232229991104 0.45439958961504 0.47378307989500 
C38   C     0.18840171972274 0.82462168958143 0.28264336005765 
C39   C     0.19778559971486 0.35977239038529 0.48206820004593 
C40   C     0.11304964973323 0.12357504992760 0.40005595998262 
C41   C     0.10365511994996 0.18122241001758 0.46288308999823 
C42   C     0.07752733981564 0.10159621038594 0.43643256996474 
H1    H     0.02936939033394 0.62245152996960 0.32790587997691 
H2    H     0.07036569037433 0.70842456036307 0.26717386989997 
H3    H     0.86729034968729 0.25054944970087 0.35934515001984 
H4    H     0.96075634980255 0.24576744016894 0.29854346004942 
H5    H     0.84434833962218 0.32948828978300 0.42106271008832 
H6    H     0.10815662976912 0.30189774044181 0.25838958008515 
H7    H     0.89909646999992 0.46375468031275 0.46949685986554 
H8    H     0.27173905978069 0.40225355986468 0.24910590990974 
H9    H     0.00364165026993 0.62516915030686 0.48904996006387 
H10   H     0.40715675018641 0.51156237004409 0.27349389999766 
H11   H     0.13895708038822 0.77669529015840 0.47615860992587 
H12   H     0.47678964976281 0.61370403036075 0.32527635991466 
H13   H     0.25323063994068 0.88577024012057 0.43350311003473 
H14   H     0.46800765998717 0.66268832002577 0.38918371000119 
H15   H     0.19688048015827 0.23973011965786 0.36249267013303 
H16   H     0.31630441029107 0.93958525955850 0.37088606004764 
H17   H     0.39412481981233 0.62748288968304 0.45211794990247 
H18   H     0.29502530999292 0.93551169018596 0.30676487011619 
H19   H     0.29292427980166 0.50658013986848 0.49516802993594 
H20   H     0.20682689965459 0.86114696971339 0.25549559999106 
H21   H     0.17505939018142 0.33505748996057 0.51015856008136 
H22   H     0.09670475998737 0.05839673002457 0.37910714998267 
H23   H     0.07921060983303 0.16393664998553 0.49131753987375 
H24   H     0.03166423014760 0.02120454040256 0.44347407011101 
