data_stdin
_audit_creation_method 'critic2'
_audit_creation_date 2023-8-11
_chemical_formula_sum 'C42 H24'
_cell_formula_units_Z 4
_cell_length_a        14.2759455670
_cell_length_b         9.8362287883
_cell_length_c        19.5285704670
_cell_angle_alpha        89.9980
_cell_angle_beta        81.1700
_cell_angle_gamma        89.9992
_cell_volume          2709.729688
_space_group_crystal_system monoclinic
_space_group_IT_number 14
_space_group_name_H-M_alt 'P2_1/c'
_space_group_name_Hall '-P 2ybc'
loop_
_symmetry_equiv_pos_site_id
_symmetry_equiv_pos_as_xyz
 1 'x,y,z'
 2 '-x,-y,-z'
 3 '-x,-1/2+y,-1/2-z'
 4 'x,-1/2-y,-1/2+z'
loop_
_atom_site_label
_atom_site_type_symbol
_atom_site_fract_x
_atom_site_fract_y
_atom_site_fract_z
C1    C     0.80154248997384 0.45609322024495 0.36373268024541 
C2    C     0.80781865989958 0.53476453955428 0.42522712999989 
C3    C     0.78467838013939 0.51268177955376 0.29832469995313 
C4    C     0.76305207029922 0.66532320992671 0.43965313018334 
C5    C     0.81061108986166 0.64875988988358 0.27444624008757 
C6    C     0.68047421970092 0.70999226986204 0.41142354024910 
C7    C     0.88503938030248 0.72972138965577 0.29762931996902 
C8    C     0.60973960982463 0.62066483956472 0.39025103000698 
C9    C     0.81184570025887 0.31280716003672 0.36831502995312 
C10   C     0.85948114975782 0.47932663964601 0.47537598012859 
C11   C     0.74190296993860 0.42557449984364 0.25349248980762 
C12   C     0.80197401969889 0.75436019966796 0.48535835002416 
C13   C     0.76596875993158 0.70330613007144 0.22014782978825 
C14   C     0.66629509973176 0.85287507031233 0.40679840021034 
C15   C     0.95679054967160 0.67412121016806 0.33205197002204 
C16   C     0.58879951022656 0.48523552004655 0.41804673984010 
C17   C     0.89387488965102 0.87034748952277 0.27881082004725 
C18   C     0.55028369976036 0.67379838005483 0.34463800019161 
C19   C     0.85459290020849 0.25616955043340 0.42324547011997 
C20   C     0.88383821032011 0.33857039039896 0.47230921978330 
C21   C     0.77828850001979 0.22741952038978 0.31848241019299 
C22   C     0.88631365969667 0.56565148021976 0.52771262998114 
C23   C     0.73772349022025 0.28280728027538 0.26589602019867 
C24   C     0.86481412993194 0.70138461993274 0.52884002993116 
C25   C     0.70587886038451 0.48094479980122 0.19544388974399 
C26   C     0.77644740970181 0.89451794005631 0.48760774984752 
C27   C     0.71236902023594 0.61738940954716 0.18203280983959 
C28   C     0.71605473991990 0.94357784015888 0.44539170002262 
C29   C     0.02740567978077 0.75443776022507 0.35197386022719 
C30   C     0.52586905970933 0.39969996997515 0.38710987996935 
C31   C     0.77837350964722 0.84301453950419 0.20107501001555 
C32   C     0.60028583994634 0.90389647028775 0.36537436976990 
C33   C     0.61952905004632 0.43706683981684 0.47927161989629 
C34   C     0.83687568998059 0.92535115018903 0.23155204010423 
C35   C     0.54867551967521 0.81619613969639 0.33158806992757 
C36   C     0.96375297973579 0.95194366014404 0.30308359013710 
C37   C     0.48759447036968 0.58589272013885 0.31505514982489 
C38   C     0.02920270007631 0.89564251954209 0.33990804988816 
C39   C     0.47846241993604 0.45215963002236 0.33357920014330 
C40   C     0.59763736972489 0.30788238001397 0.50447993001361 
C41   C     0.50553983011684 0.26692791958286 0.41323596019401 
C42   C     0.54170521982929 0.22039826007457 0.47050390012234 
H1    H     0.95825231007918 0.56524664952477 0.34084384984308 
H2    H     0.08321726027450 0.70758432015524 0.37616002011771 
H3    H     0.86694394030724 0.14688159046630 0.42342482991917 
H4    H     0.92382667031445 0.29745599953268 0.51074252989852 
H5    H     0.78206983027793 0.11781475985514 0.32489294989873 
H6    H     0.92814548990983 0.52340649985584 0.56475314012155 
H7    H     0.70602356979457 0.21814275042801 0.23031755026009 
H8    H     0.89176137968284 0.76928662987936 0.56536991014440 
H9    H     0.67180821036631 0.41309696029965 0.16261721975608 
H10   H     0.80829661029905 0.96216955040068 0.52180136020670 
H11   H     0.68214328006089 0.66125368013266 0.13908866021998 
H12   H     0.70104523009664 0.05191064029342 0.44334103024218 
H13   H     0.74093615030695 0.88207746950921 0.16063673016742 
H14   H     0.59314036004484 0.01359859010842 0.36042023986557 
H15   H     0.65859066976472 0.50445345004648 0.50854201984913 
H16   H     0.84560148024099 0.03204293972890 0.21715402023742 
H17   H     0.50093578978722 0.85457757996934 0.29763118005368 
H18   H     0.96730682967619 0.05946189021040 0.28961628990259 
H19   H     0.44700283982728 0.62845136015632 0.27718650985232 
H20   H     0.08429118009040 0.95867049041893 0.35652803989917 
H21   H     0.43100979015744 0.38553221955247 0.31049011990464 
H22   H     0.62172270014370 0.27524906000309 0.55209696975079 
H23   H     0.45842483971027 0.20302771967537 0.38819794016725 
H24   H     0.52401351971970 0.11912896005699 0.49092066998074 
