data_stdin
_audit_creation_method 'critic2'
_audit_creation_date 2023-8-11
_chemical_formula_sum 'C42 H24'
_cell_formula_units_Z 4
_cell_length_a        11.5228034685
_cell_length_b        16.4057796804
_cell_length_c        16.7438100612
_cell_angle_alpha        90.0001
_cell_angle_beta       122.9837
_cell_angle_gamma        89.9997
_cell_volume          2655.100256
_space_group_crystal_system monoclinic
_space_group_IT_number 14
_space_group_name_H-M_alt 'P2_1/c'
_space_group_name_Hall '-P 2ybc'
loop_
_symmetry_equiv_pos_site_id
_symmetry_equiv_pos_as_xyz
 1 'x,y,z'
 2 '-x,-y,-z'
 3 '-x,-1/2+y,-1/2-z'
 4 'x,-1/2-y,-1/2+z'
loop_
_atom_site_label
_atom_site_type_symbol
_atom_site_fract_x
_atom_site_fract_y
_atom_site_fract_z
C1    C     0.38568547747131 0.32356316416563 0.51961793237809 
C2    C     0.27802548303136 0.37839424892611 0.50513805241961 
C3    C     0.36154775434793 0.24606812661275 0.47170176004467 
C4    C     0.13843045641397 0.35306084471447 0.47097027192767 
C5    C     0.24231627613376 0.22539566464381 0.37863788731598 
C6    C     0.10001893859103 0.27161174435621 0.48112979166850 
C7    C     0.15677086749910 0.28383809010431 0.30390643375286 
C8    C     0.19039079335646 0.21453439019151 0.55504227637362 
C9    C     0.52503289378682 0.34725318687063 0.58694007228621 
C10   C     0.31136121159040 0.46255983656366 0.52509296470537 
C11   C     0.46603255730667 0.18551787747575 0.52078867930023 
C12   C     0.03192786657011 0.41239446220920 0.42351801658891 
C13   C     0.21257985142987 0.14122468674275 0.35602822119803 
C14   C     0.96156360752368 0.24642158090347 0.41344416203334 
C15   C     0.19514973772349 0.36612252732133 0.30532858705341 
C16   C     0.30607288187071 0.23780025519077 0.64861727138445 
C17   C     0.03151182628721 0.25661248841753 0.21974729616022 
C18   C     0.15777722056557 0.13023683363814 0.53762028152954 
C19   C     0.55584103116587 0.43018950655929 0.61636505991222 
C20   C     0.45269049389422 0.48721801215134 0.58010847696198 
C21   C     0.63199605516014 0.28767040213885 0.62489008635205 
C22   C     0.20255802316756 0.52093552579596 0.48959172334234 
C23   C     0.60042782841295 0.20784944282509 0.59825904176518 
C24   C     0.06728580443331 0.49668810929937 0.43460383252978 
C25   C     0.43625685813639 0.10258386807649 0.49235592001561 
C26   C     0.89134791943923 0.38679809448239 0.36611609134074 
C27   C     0.30942103137747 0.08060830309029 0.41607383548670 
C28   C     0.85890815117157 0.30565156813460 0.35578137470666 
C29   C     0.10904402537671 0.42003823470175 0.23362972111203 
C30   C     0.40202601388421 0.17660734878932 0.71000113732834 
C31   C     0.08750118780840 0.11629578289225 0.27122224476572 
C32   C     0.92683328170236 0.16213505745599 0.40383114803456 
C33   C     0.32270620431330 0.31730350822915 0.68637431826897 
C34   C     0.99757241607543 0.17211335157455 0.20685426750787 
C35   C     0.02572948343937 0.10548917649743 0.45925300469754 
C36   C     0.94491303836595 0.31292638953319 0.14735306517177 
C37   C     0.25574324764499 0.07073119846306 0.60044895507824 
C38   C     0.98083610921765 0.39405362793156 0.15493897872276 
C39   C     0.37707114376261 0.09314362379376 0.68135161844143 
C40   C     0.43335343642487 0.33728171782889 0.77632023738856 
C41   C     0.51604334992917 0.19902630787701 0.80099819723132 
C42   C     0.53305194772520 0.27817166778338 0.83373411219599 
H1    H     0.29537980489282 0.38719704500121 0.36332649137662 
H2    H     0.14162269779147 0.48295713543190 0.23728115282803 
H3    H     0.66370276118623 0.44775462589615 0.66433581365213 
H4    H     0.47673396431436 0.55179283770538 0.59468732909677 
H5    H     0.73738967275631 0.30604997582659 0.67865854956853 
H6    H     0.22916340730186 0.58525503479644 0.50473377097854 
H7    H     0.67927491839023 0.16071506127664 0.63328447519610 
H8    H     0.98423046127884 0.54142750883377 0.40233023231368 
H9    H     0.51509248049716 0.05732260932488 0.53533288036660 
H10   H     0.81132012997009 0.43293460538584 0.32826092691162 
H11   H     0.28205116104342 0.01677690456453 0.39690679602743 
H12   H     0.75316377499517 0.28515318463990 0.30653786746889 
H13   H     0.06542300417615 0.05128171245036 0.25902072918344 
H14   H     0.82146323643307 0.14386230204108 0.34953696196861 
H15   H     0.24471154653821 0.36314505094982 0.64467346083560 
H16   H     0.90156371386144 0.15272092072675 0.14269313550246 
H17   H     0.00238872223862 0.04065713472985 0.44732239975349 
H18   H     0.85027849022242 0.29033614226512 0.08434410810490 
H19   H     0.23155960625334 0.00652304511093 0.58198296502585 
H20   H     0.91325279375030 0.43688543922322 0.09886757539240 
H21   H     0.45210140691524 0.04730243678707 0.72801574567731 
H22   H     0.44159988903704 0.39860040241083 0.80377034839826 
H23   H     0.58967691403908 0.15193426271925 0.84578962332446 
H24   H     0.62024764796053 0.29416757285003 0.90450422609530 
