data_stdin
_audit_creation_method 'critic2'
_audit_creation_date 2023-8-11
_chemical_formula_sum 'C42 H24'
_cell_formula_units_Z 2
_cell_length_a         8.8259106875
_cell_length_b        11.0609396807
_cell_length_c        14.3890760297
_cell_angle_alpha        77.4089
_cell_angle_beta        87.9219
_cell_angle_gamma       107.8655
_cell_volume          1296.746236
_space_group_crystal_system triclinic
_space_group_IT_number 2
_space_group_name_H-M_alt 'P-1'
_space_group_name_Hall '-P 1'
loop_
_symmetry_equiv_pos_site_id
_symmetry_equiv_pos_as_xyz
 1 'x,y,z'
 2 '-x,-y,-z'
loop_
_atom_site_label
_atom_site_type_symbol
_atom_site_fract_x
_atom_site_fract_y
_atom_site_fract_z
C1    C     0.40695736806277 0.71319767342082 0.22829391497077 
C2    C     0.38268129859584 0.72859665689805 0.32430459659263 
C3    C     0.36593213984426 0.78971658780614 0.14375511654572 
C4    C     0.26373300146074 0.78046064218739 0.35580997867626 
C5    C     0.34876567266368 0.91789746826597 0.13444480237861 
C6    C     0.11608635632145 0.77295098569477 0.31380475492756 
C7    C     0.43177799045406 0.01327182636206 0.18601584966607 
C8    C     0.04056075245308 0.67810968545527 0.26065530719896 
C9    C     0.47618169275815 0.61587253626759 0.21719701378445 
C10   C     0.48365543996382 0.69179746918930 0.39212139806164 
C11   C     0.34253253355719 0.73492184374060 0.06223915582823 
C12   C     0.29598159890191 0.84390784730606 0.43229557533380 
C13   C     0.25625980757692 0.95914417617645 0.06276660991454 
C14   C     0.04058267652069 0.86660652079462 0.32478684464137 
C15   C     0.56795096591158 0.00573893734546 0.23316398974117 
C16   C     0.05700276529174 0.54912143421084 0.27512103974656 
C17   C     0.38871573548714 0.12911372168331 0.18015942352197 
C18   C     0.93592252190008 0.70983466397376 0.19397550483602 
C19   C     0.55330825257416 0.56151424729998 0.29307522528154 
C20   C     0.56831124919694 0.60655162077214 0.37469489562249 
C21   C     0.46991698161584 0.57510672990493 0.12970144835358 
C22   C     0.49978602618726 0.74278039614749 0.47550956992960 
C23   C     0.39559992881507 0.62702274763914 0.05721788240551 
C24   C     0.41918265520425 0.82618209629511 0.48984857890048 
C25   C     0.26668336679167 0.78795135249087 0.98562723403428 
C26   C     0.20431005866168 0.92374628964479 0.45075978179476 
C27   C     0.21292579078073 0.89012506123265 0.98997662794445 
C28   C     0.08708544349415 0.94081427208476 0.39456173550294 
C29   C     0.65325646243303 0.10401428477226 0.27421393793537 
C30   C     0.00956813493798 0.47603600224754 0.20439382647692 
C31   C     0.21274711064403 0.07379649104315 0.06049931668078 
C32   C     0.92057678409129 0.88568957879288 0.26518917490173 
C33   C     0.10520192394740 0.48654845408311 0.36027362334336 
C34   C     0.27068645803426 0.15315367155140 0.12029328796372 
C35   C     0.87864671942235 0.81625739379780 0.19702033196565 
C36   C     0.47300376448866 0.22530056176526 0.22711072257042 
C37   C     0.88568078461704 0.63275608806852 0.12602947422077 
C38   C     0.60496134551467 0.21461935969425 0.27243908444721 
C39   C     0.92933250623430 0.52412332424371 0.12749618087391 
C40   C     0.12133625164523 0.36396611082213 0.37092676403759 
C41   C     0.03455475520091 0.35353009713106 0.21494977821695 
C42   C     0.09212352301187 0.29894647427165 0.29605852036100 
H1    H     0.60948654220898 0.92288774160016 0.23399975935518 
H2    H     0.76020099800279 0.09761412657675 0.30754888799146 
H3    H     0.61028733189771 0.49068152064667 0.28178869107611 
H4    H     0.64109278143627 0.57523614127962 0.42846808881243 
H5    H     0.52139359121548 0.49930855493847 0.12301926274345 
H6    H     0.58206628116763 0.71836258681570 0.52534477927607 
H7    H     0.38090123538356 0.59048235357478 0.99254723887108 
H8    H     0.44228296142293 0.87497277507429 0.54825652389204 
H9    H     0.25073102523533 0.74448727529071 0.92420395108859 
H10   H     0.23407207578947 0.97472493427845 0.50781566875319 
H11   H     0.14618538997221 0.92609660034024 0.93426562369626 
H12   H     0.02375569397440 0.00835617504137 0.40440182431093 
H13   H     0.13217287552652 0.09679801942416 0.00905442012827 
H14   H     0.86738965251070 0.96017120781589 0.27272285789670 
H15   H     0.12710583796133 0.53510610430242 0.41884077372716 
H16   H     0.23709806738507 0.24048813085622 0.11854728054298 
H17   H     0.79253539412215 0.83513612477901 0.14829444461664 
H18   H     0.43325475663638 0.30987487575690 0.22425384528749 
H19   H     0.81280097882553 0.66373782850016 0.07218685133020 
H20   H     0.67332450359420 0.29109172693441 0.30526133873498 
H21   H     0.89664516096159 0.46905973754417 0.07296023675995 
H22   H     0.15510677452271 0.31692088507963 0.43792831860914 
H23   H     0.00261146523637 0.30101487494211 0.15884754908794 
H24   H     0.11154430816692 0.20496843914015 0.30302517104554 
