data_stdin
_audit_creation_method 'critic2'
_audit_creation_date 2023-8-11
_chemical_formula_sum 'C42 H24'
_cell_formula_units_Z 4
_cell_length_a        10.0273677236
_cell_length_b        14.5505872400
_cell_length_c        20.4593343666
_cell_angle_alpha        90.0000
_cell_angle_beta        60.3119
_cell_angle_gamma        90.0000
_cell_volume          2593.259340
_space_group_crystal_system monoclinic
_space_group_IT_number 14
_space_group_name_H-M_alt 'P2_1/c'
_space_group_name_Hall '-P 2ybc'
loop_
_symmetry_equiv_pos_site_id
_symmetry_equiv_pos_as_xyz
 1 'x,y,z'
 2 '-x,-y,-z'
 3 '-x,-1/2+y,-1/2-z'
 4 'x,-1/2-y,-1/2+z'
loop_
_atom_site_label
_atom_site_type_symbol
_atom_site_fract_x
_atom_site_fract_y
_atom_site_fract_z
C1    C     0.21877763023950 0.18760804224401 0.16412497613463 
C2    C     0.23669556250444 0.22927961800473 0.22338390693859 
C3    C     0.34337447917223 0.14966133047292 0.09524856639590 
C4    C     0.37771649508998 0.26952773149310 0.21247698848038 
C5    C     0.48851430741667 0.11632070605099 0.08540501613416 
C6    C     0.49237748388444 0.31003904943561 0.14268301156328 
C7    C     0.51149947560145 0.08145554871937 0.14560653115239 
C8    C     0.46224521828460 0.34762298322138 0.08580799044080 
C9    C     0.06743583222357 0.18460381991490 0.17457883293798 
C10   C     0.10781038899952 0.23188141924472 0.29732971913257 
C11   C     0.31928483511926 0.14259727588984 0.03224291604928 
C12   C     0.40365271973409 0.26923861390601 0.27481312562265 
C13   C     0.61442119842111 0.10915229741996 0.01075417829970 
C14   C     0.64501103083254 0.31532228321488 0.13057570485306 
C15   C     0.38918018469898 0.05673541277850 0.21745888236271 
C16   C     0.31379039385915 0.38094945099683 0.09967168350935 
C17   C     0.66415784027662 0.06274556214330 0.13104955292348 
C18   C     0.58879200930464 0.36102215219631 0.01231502638901 
C19   C     0.93841050450154 0.20144927216329 0.24707736391679 
C20   C     0.95783101526834 0.21911293245594 0.30748433257598 
C21   C     0.04546488143352 0.16672805253177 0.11217132560210 
C22   C     0.13167036360029 0.24589476923508 0.35987649950994 
C23   C     0.16881457165609 0.15218406073985 0.04233422035953 
C24   C     0.27753730201509 0.25483277356772 0.34866291718678 
C25   C     0.44473387259519 0.12481636596618 0.95913211994883 
C26   C     0.55457651918928 0.28432607267297 0.26253437615333 
C27   C     0.59005355866487 0.11587982235809 0.94806677284387 
C28   C     0.67316455817176 0.30055411459083 0.19149647339901 
C29   C     0.41559204662311 0.02654241728183 0.27403352430211 
C30   C     0.29135805641015 0.39873897403555 0.03699152536237 
C31   C     0.76476586331784 0.08866153090122 0.99791976434650 
C32   C     0.76823603844535 0.33849588829994 0.05815101667336 
C33   C     0.19376217176029 0.40653033981806 0.17192235671414 
C34   C     0.79008504118665 0.06986829214587 0.05617724201301 
C35   C     0.74131054025528 0.35575347505526 0.00000517227875 
C36   C     0.68814650919123 0.03259930073565 0.19028046789235 
C37   C     0.56367621283836 0.38278097179270 0.95112930735504 
C38   C     0.56616309920861 0.01721394186075 0.26144816728674 
C39   C     0.41886487214086 0.39479553824539 0.96233891671155 
C40   C     0.05559840170479 0.44063658944788 0.18266286618916 
C41   C     0.14618852609247 0.42893051023188 0.04973686694303 
C42   C     0.02936525681873 0.44931685790691 0.12138445784628 
H1    H     0.27199852421546 0.06114049913171 0.22821153186518 
H2    H     0.31932915882474 0.00847952171881 0.32874639462807 
H3    H     0.82400619764482 0.19610053690768 0.25372364056518 
H4    H     0.85925463099970 0.22727050200892 0.36352924383486 
H5    H     0.92936688743414 0.16873153780375 0.12079639312476 
H6    H     0.03267872781150 0.24463768932668 0.41647241935245 
H7    H     0.15379000507022 0.14385931866624 0.99346518840540 
H8    H     0.29876549266142 0.25504943951567 0.39593436088242 
H9    H     0.42263610643450 0.11859457412986 0.91233686195070 
H10   H     0.57380413206685 0.28057140221307 0.31041643791335 
H11   H     0.68763452280205 0.10658560520900 0.89167701577488 
H12   H     0.79021078535465 0.30824940176016 0.18093551314728 
H13   H     0.85886422748159 0.08694864619639 0.93997431693566 
H14   H     0.88414582556863 0.34062590502066 0.05001987859176 
H15   H     0.21146024547588 0.40102867331409 0.21996287414988 
H16   H     0.90521275864122 0.05481848993164 0.04605037668036 
H17   H     0.83546236982175 0.37191382398390 0.94424527123659 
H18   H     0.80547790911406 0.02021701857989 0.17815123305825 
H19   H     0.66322974651871 0.39000812421987 0.89514487649572 
H20   H     0.58536012551846 0.99458812883998 0.30677827098391 
H21   H     0.39987925866129 0.40852356024884 0.91524626533521 
H22   H     0.96731337820452 0.46135235192214 0.23879847958518 
H23   H     0.13120352458149 0.44020735232394 0.00106519518070 
H24   H     0.91971452511386 0.47503275625833 0.13023039213609 
