data_stdin
_audit_creation_method 'critic2'
_audit_creation_date 2023-8-11
_chemical_formula_sum 'C42 H24'
_cell_formula_units_Z 2
_cell_length_a        10.2046285625
_cell_length_b         9.9292054500
_cell_length_c        14.2133131447
_cell_angle_alpha        90.0000
_cell_angle_beta        73.5046
_cell_angle_gamma        90.0000
_cell_volume          1380.874753
_space_group_crystal_system monoclinic
_space_group_IT_number 7
_space_group_name_H-M_alt 'Pc'
_space_group_name_Hall 'P -2yc'
loop_
_symmetry_equiv_pos_site_id
_symmetry_equiv_pos_as_xyz
 1 'x,y,z'
 2 'x,-y,-1/2+z'
loop_
_atom_site_label
_atom_site_type_symbol
_atom_site_fract_x
_atom_site_fract_y
_atom_site_fract_z
C1    C     0.99960704681677 0.17376928494285 0.99802661217441 
C2    C     0.07153740444028 0.17396417640072 0.07169289116519 
C3    C     0.06185062540032 0.20895641402718 0.89667873796863 
C4    C     0.19006062220457 0.25593365657738 0.06649390109802 
C5    C     0.20559016397272 0.19432992075319 0.84653030431384 
C6    C     0.22042952049564 0.38078479346491 0.01243313017745 
C7    C     0.29541726033998 0.09927795982868 0.87516658710923 
C8    C     0.12038579725314 0.46876099357174 0.98957916032161 
C9    C     0.85989164535778 0.13466689517987 0.02663404268469 
C10   C     0.02348300349496 0.08716834888458 0.15360583197501 
C11   C     0.97409754973991 0.25583211976751 0.84162986636345 
C12   C     0.28298005321385 0.20904498728466 0.11721551529476 
C13   C     0.25965290466655 0.26763213920897 0.75814826062133 
C14   C     0.36044060830117 0.42085676048114 0.98063287911163 
C15   C     0.24698883428611 0.98818750563597 0.93819587471221 
C16   C     0.97728784454022 0.47610420282090 0.04593486905953 
C17   C     0.43975861943512 0.10854032534092 0.83070430516746 
C18   C     0.16722745488388 0.56208456475899 0.91130433716630 
C19   C     0.80638950367592 0.06354162121344 0.11664369669609 
C20   C     0.88942437525207 0.03156139019910 0.17407773259435 
C21   C     0.77624596636634 0.16790227117205 0.96495219149145 
C22   C     0.11099934381538 0.05574871246459 0.21279296480728 
C23   C     0.83004588707637 0.23682344004432 0.87913235810712 
C24   C     0.24104516968080 0.10639842873485 0.18964214364972 
C25   C     0.03125794909844 0.31676587046941 0.74840612118221 
C26   C     0.41680673670823 0.26492746258733 0.09476185742093 
C27   C     0.16974782763960 0.33162428052612 0.71155507894222 
C28   C     0.45714700908150 0.36019829096902 0.02275502331408 
C29   C     0.33532333014238 0.90088536530639 0.96529979963524 
C30   C     0.88443126752149 0.55415307258691 0.00909619992249 
C31   C     0.40390671570837 0.27182388851862 0.71375191701710 
C32   C     0.40279749760562 0.52224150713017 0.90745999833344 
C33   C     0.92538979251828 0.42000801329894 0.14099421408178 
C34   C     0.49169948085905 0.20087249093751 0.75177667617578 
C35   C     0.30988675028432 0.58371471534547 0.86881810328837 
C36   C     0.52836217594645 0.01919616545877 0.86083062731431 
C37   C     0.07203898334240 0.63978659292721 0.87728914742539 
C38   C     0.47769606868395 0.91881352247346 0.92871261075074 
C39   C     0.93502259348813 0.63210843470391 0.92199332135370 
C40   C     0.78850053011997 0.42811233003343 0.19229971395148 
C41   C     0.74441656192598 0.55968727318784 0.06260938561171 
C42   C     0.69568678801361 0.49547938657396 0.15199371166659 
H1    H     0.13801080662222 0.96895714504253 0.96452180194441 
H2    H     0.29383977162942 0.81747082222976 0.01433649401235 
H3    H     0.70013671751804 0.03059056895252 0.13642539535880 
H4    H     0.85404826931438 0.96707688562487 0.23829653766311 
H5    H     0.66815452219336 0.14197789271335 0.98881166442145 
H6    H     0.07480802739733 0.98602320060592 0.27358727499171 
H7    H     0.76454622827636 0.27276310184795 0.83570185979217 
H8    H     0.31222063674928 0.07318714757302 0.22923895430580 
H9    H     0.96263206204808 0.35430543252275 0.70827559201734 
H10   H     0.48788625979319 0.22632182742364 0.13282661420045 
H11   H     0.21312493990776 0.38630109620600 0.64330307844724 
H12   H     0.56278483942779 0.39466237487110 0.99933887584249 
H13   H     0.44189427973117 0.33441017880899 0.64868627111388 
H14   H     0.51117219271682 0.54703134678993 0.88144986471098 
H15   H     0.99516022083193 0.37300861503622 0.17605558697403 
H16   H     0.60186851643857 0.20850617774919 0.71905089585058 
H17   H     0.34217480485890 0.65623002539892 0.80925490367285 
H18   H     0.63806457323904 0.02944700730645 0.82804491480937 
H19   H     0.11191974366880 0.70688431351586 0.81520213608968 
H20   H     0.54728322821886 0.85150012383024 0.95158299631869 
H21   H     0.86325147484507 0.69133552190196 0.89500898904424 
H22   H     0.75334096562978 0.38347118717024 0.26514742809865 
H23   H     0.67574736499462 0.61866509388768 0.03231500793200 
H24   H     0.58776142349697 0.50051921492204 0.19224269451164 
