data_stdin
_audit_creation_method 'critic2'
_audit_creation_date 2023-8-11
_chemical_formula_sum 'C42 H24'
_cell_formula_units_Z 4
_cell_length_a        10.0415285879
_cell_length_b        28.5458667020
_cell_length_c        10.5353144577
_cell_angle_alpha        89.9986
_cell_angle_beta       116.1536
_cell_angle_gamma        90.0026
_cell_volume          2710.697079
_space_group_crystal_system monoclinic
_space_group_IT_number 14
_space_group_name_H-M_alt 'P2_1/c'
_space_group_name_Hall '-P 2ybc'
loop_
_symmetry_equiv_pos_site_id
_symmetry_equiv_pos_as_xyz
 1 'x,y,z'
 2 '-x,-y,-z'
 3 '-x,-1/2+y,-1/2-z'
 4 'x,-1/2-y,-1/2+z'
loop_
_atom_site_label
_atom_site_type_symbol
_atom_site_fract_x
_atom_site_fract_y
_atom_site_fract_z
C1    C     0.59963282567531 0.42161468276039 0.91987024828017 
C2    C     0.72062438490145 0.39947110675538 0.90365166446486 
C3    C     0.58170581891078 0.42110398970495 0.04884136872388 
C4    C     0.80658274659516 0.36055666462745 0.98827400971084 
C5    C     0.70074848377087 0.41636646057264 0.19008160774262 
C6    C     0.75347145907923 0.32713163845989 0.05863537884958 
C7    C     0.85442364477828 0.42897799005513 0.23074343557013 
C8    C     0.59931716539979 0.31506841145548 0.01508988202372 
C9    C     0.49137440343216 0.44590975517829 0.80097415852448 
C10   C     0.75894977877421 0.41747552705460 0.79814629087166 
C11   C     0.43488126648497 0.42707261049874 0.03504515664261 
C12   C     0.95414899366803 0.35532766373625 0.00404320406201 
C13   C     0.66328966329209 0.40183283943362 0.29955700532290 
C14   C     0.86230973317947 0.30340278669282 0.17909864336856 
C15   C     0.90030865225732 0.45700632557216 0.14607430784214 
C16   C     0.48340134667440 0.31842725940893 0.87086389269684 
C17   C     0.96578066717587 0.41616249919452 0.36794561706234 
C18   C     0.56137276276367 0.29470176861929 0.11814068831763 
C19   C     0.52263656782608 0.45775517939578 0.68544042393356 
C20   C     0.65667640587649 0.44663995783102 0.68875515076168 
C21   C     0.35221843830633 0.45783545830903 0.79770552514487 
C22   C     0.90029403225716 0.40674338659299 0.80407326191717 
C23   C     0.32122014929505 0.44491746837288 0.90676870264727 
C24   C     0.99891257463719 0.37934450045379 0.91048815862890 
C25   C     0.40263322602802 0.41625781452013 0.15043526007512 
C26   C     0.05644826242492 0.32637736613452 0.11372048255235 
C27   C     0.51225782737625 0.40080407432593 0.27577890016490 
C28   C     0.01365774806783 0.30364021238488 0.20393507140306 
C29   C     0.04796180174091 0.46754049240001 0.18726548511671 
C30   C     0.33244116554716 0.31000184271361 0.84355071089480 
C31   C     0.77718257606196 0.38971629745247 0.43566246096292 
C32   C     0.81968101910279 0.28004483906153 0.27494256757081 
C33   C     0.51181041231513 0.32530881828358 0.75164094590077 
C34   C     0.92351292503036 0.39487801607083 0.46720225807918 
C35   C     0.67430943260521 0.27931731064443 0.25057903697473 
C36   C     0.11680685299379 0.42641147679638 0.40670977752749 
C37   C     0.40973959800739 0.28706501967827 0.08720110243836 
C38   C     0.15822479197950 0.45077975640287 0.31675650636023 
C39   C     0.29877432965733 0.29573565737207 0.95577461889199 
C40   C     0.39837737358618 0.32795044517597 0.61607356464793 
C41   C     0.21785700661550 0.31354476529550 0.70389210730659 
C42   C     0.24946104719136 0.32323279370552 0.59176193217375 
H1    H     0.81710186565581 0.47101906174426 0.04726276662653 
H2    H     0.07914662732083 0.48935323455545 0.11990539760698 
H3    H     0.43976948624570 0.47754194350153 0.59778278016821 
H4    H     0.68622410312316 0.45838517753198 0.60612211305023 
H5    H     0.26987256736400 0.47593650554192 0.70549022669918 
H6    H     0.93017917738871 0.42282710617887 0.72648859195832 
H7    H     0.21124616754305 0.45052062976421 0.90037210792693 
H8    H     0.11112778196616 0.37395725689603 0.92224533742173 
H9    H     0.28872703520089 0.41962188821482 0.13584574654533 
H10   H     0.17048426924834 0.32451196912869 0.12808410382652 
H11   H     0.48712005305012 0.39012629297769 0.36223024462395 
H12   H     0.09404154943513 0.28394831248701 0.29345167759153 
H13   H     0.74409893417820 0.37595756941594 0.51399748062216 
H14   H     0.90537036274534 0.26418543438507 0.37002730838138 
H15   H     0.62542645706034 0.32720829494204 0.76607184094146 
H16   H     0.01019702358276 0.38475879849347 0.57017219666638 
H17   H     0.64174296064817 0.26430404916317 0.32771451470148 
H18   H     0.19973707953571 0.41501201802386 0.51007203926424 
H19   H     0.38503156534529 0.27295754267647 0.17053653498522 
H20   H     0.27459165554812 0.45806444363113 0.34643574265268 
H21   H     0.18321872661282 0.28966926220317 0.93269216359511 
H22   H     0.42490358138739 0.33267870940717 0.52717346730523 
H23   H     0.10379511196716 0.30748025729833 0.68636884945180 
H24   H     0.16058001410361 0.32617376212499 0.48511838203944 
