data_stdin
_audit_creation_method 'critic2'
_audit_creation_date 2023-8-11
_chemical_formula_sum 'C42 H24'
_cell_formula_units_Z 4
_cell_length_a        17.3538030292
_cell_length_b        10.0232063000
_cell_length_c        15.2601195025
_cell_angle_alpha        90.0001
_cell_angle_beta        83.4567
_cell_angle_gamma        90.0002
_cell_volume          2637.065967
_space_group_crystal_system monoclinic
_space_group_IT_number 9
_space_group_name_H-M_alt 'Cc'
_space_group_name_Hall 'C -2yc'
loop_
_symmetry_equiv_pos_site_id
_symmetry_equiv_pos_as_xyz
 1 'x,y,z'
 2 '-1/2+x,-1/2-y,-1/2+z'
 3 '-1/2+x,-1/2+y,z'
 4 'x,-y,-1/2+z'
loop_
_atom_site_label
_atom_site_type_symbol
_atom_site_fract_x
_atom_site_fract_y
_atom_site_fract_z
C1    C     0.99986982009141 0.68489962862228 0.99848109792275 
C2    C     0.01336261520465 0.81451937912806 0.95843012851177 
C3    C     0.05829297217728 0.60681718946625 0.03569742105393 
C4    C     0.08804323392931 0.86058732467168 0.91837261981002 
C5    C     0.12599583643716 0.66140582533945 0.06984112104239 
C6    C     0.14990780592165 0.77405892559278 0.88077237766307 
C7    C     0.13140264818110 0.79667072264739 0.10283009085132 
C8    C     0.13929567408565 0.64158125147944 0.84626307169440 
C9    C     0.92364102289903 0.63139847343762 0.00194474444468 
C10   C     0.94905749285926 0.90259766741117 0.95869581966941 
C11   C     0.04640441931889 0.46619134160401 0.04196136518833 
C12   C     0.10102252453045 0.00075193213740 0.91581115647100 
C13   C     0.18858366636468 0.57369551884630 0.08074355521560 
C14   C     0.22698298680808 0.82559929616190 0.87520003535186 
C15   C     0.06571424764959 0.87824687378212 0.12717860114792 
C16   C     0.06862581875619 0.59428133753277 0.81395944698072 
C17   C     0.20505255506438 0.84669053706304 0.12151689464567 
C18   C     0.20446481115886 0.55451317110100 0.83631446581814 
C19   C     0.86025186292163 0.71725256290834 0.98954454555073 
C20   C     0.87223068982446 0.85084037662198 0.97502489034393 
C21   C     0.91153566767368 0.49254881339943 0.01749500556986 
C22   C     0.96248592232085 0.04145180978015 0.94308247706661 
C23   C     0.97244951246575 0.41135279766583 0.03068535288079 
C24   C     0.03663681569754 0.08973783830681 0.92907852836935 
C25   C     0.10751206832901 0.38117261189262 0.06233805276980 
C26   C     0.17812823411161 0.05077974926016 0.90001041683300 
C27   C     0.17806914935542 0.43313035850450 0.07569094604814 
C28   C     0.23945539136399 0.96471435832334 0.88654572239719 
C29   C     0.07276306550618 0.00564352704868 0.16003907748487 
C30   C     0.06048813367030 0.45524711184128 0.79594172798312 
C31   C     0.26097476263090 0.62601663777960 0.10128649732693 
C32   C     0.29153345660557 0.73852065174356 0.85617857481203 
C33   C     0.00920714682857 0.68034544727756 0.79132988002995 
C34   C     0.27026413541537 0.75901203459219 0.11603289381539 
C35   C     0.28024759749318 0.60543002018472 0.84259168742317 
C36   C     0.21105020419808 0.97904741994971 0.15259748436851 
C37   C     0.19475949068159 0.41681301412263 0.81646668089689 
C38   C     0.14628538722366 0.05868123325365 0.17063709407195 
C39   C     0.12432705968707 0.36722909898234 0.80116783854017 
C40   C     0.94258939731519 0.63158786887644 0.76114635239033 
C41   C     0.99089748371755 0.40716769211000 0.76711095683718 
C42   C     0.93217509060368 0.49334717802213 0.75097615830050 
H1    H     0.00822351311483 0.83898778642183 0.12160450972160 
H2    H     0.02075326088887 0.06473813454071 0.17837720242387 
H3    H     0.80196882645353 0.67520098333491 0.99583209292190 
H4    H     0.82359091813823 0.91859136326096 0.97195317919689 
H5    H     0.85347782839758 0.45226045514725 0.01583349874354 
H6    H     0.91273797475560 0.10838797458033 0.94670335165038 
H7    H     0.96452517515102 0.30396435012942 0.03789641457611 
H8    H     0.04763156068586 0.19649816355423 0.92384469923654 
H9    H     0.09728868966414 0.27402350491459 0.06610938428180 
H10   H     0.18704243105644 0.15824027302034 0.90181391016033 
H11   H     0.22575059736648 0.36799661200100 0.08854771855169 
H12   H     0.29888466577541 0.00149239471776 0.87944410094853 
H13   H     0.30867493955131 0.55653431092905 0.10579252388883 
H14   H     0.34970076610434 0.78010207173939 0.85449938158631 
H15   H     0.01648729852394 0.78734188281856 0.79684185613157 
H16   H     0.32599989368520 0.79848271904608 0.13012168878455 
H17   H     0.32929813008102 0.53722514579715 0.83165137881196 
H18   H     0.26782578877397 0.01575450069548 0.16525502442836 
H19   H     0.24550361907890 0.35212508481145 0.81270844034052 
H20   H     0.15161614355107 0.15921774937283 0.19623219088832 
H21   H     0.11734184276618 0.26212837552560 0.78605422552468 
H22   H     0.89815850984907 0.70119030502204 0.74486405908889 
H23   H     0.98593917929635 0.30047391065834 0.75523505249365 
H24   H     0.87963390765945 0.45508971784789 0.72728751676902 
