data_stdin
_audit_creation_method 'critic2'
_audit_creation_date 2023-8-11
_chemical_formula_sum 'C42 H24'
_cell_formula_units_Z 3
_cell_length_a         9.9913417751
_cell_length_b         9.9911991412
_cell_length_c        22.9226355606
_cell_angle_alpha        89.9948
_cell_angle_beta        90.0120
_cell_angle_gamma       119.9988
_cell_volume          1981.717422
_space_group_crystal_system trigonal
_space_group_IT_number 144
_space_group_name_H-M_alt 'P3_1'
_space_group_name_Hall 'P 31'
loop_
_symmetry_equiv_pos_site_id
_symmetry_equiv_pos_as_xyz
 1 'x,y,z'
 2 '-y,x-y,-2/3+z'
 3 '-x+y,-x,-1/3+z'
loop_
_atom_site_label
_atom_site_type_symbol
_atom_site_fract_x
_atom_site_fract_y
_atom_site_fract_z
C1    C     0.79384802470025 0.81954713808091 0.00019891059054 
C2    C     0.65444636595787 0.69969435816426 0.97339351349080 
C3    C     0.81154169772558 0.96179283341444 0.02409329069005 
C4    C     0.53830242404646 0.72526507281850 0.94663183233567 
C5    C     0.68774170198119 0.98132499737117 0.04752352777113 
C6    C     0.56724724453190 0.87078090178178 0.92194804159556 
C7    C     0.54137550227582 0.85633387217046 0.06916949283725 
C8    C     0.71316692517858 0.98798473204604 0.89783470372126 
C9    C     0.92262179083403 0.79549983134279 0.00328256358405 
C10   C     0.62989371484828 0.54651413223643 0.97316982479792 
C11   C     0.96491790947710 0.09060806952374 0.02688697021114 
C12   C     0.38487073218230 0.59756004782492 0.94409843479106 
C13   C     0.71557311963389 0.13473831763454 0.05506968576842 
C14   C     0.43913635003263 0.89649462583750 0.91916176241855 
C15   C     0.51656665803723 0.70745432228537 0.08326605427049 
C16   C     0.83433162059164 0.95991506586538 0.87683618567547 
C17   C     0.41878004301364 0.88642725530500 0.08242684014617 
C18   C     0.73543262999847 0.13900043507684 0.88929057402416 
C19   C     0.90051052697740 0.64435506685250 0.99504131022865 
C20   C     0.75614340676140 0.52178992410670 0.98442620976977 
C21   C     0.07310064544443 0.92295717296967 0.01379548756202 
C22   C     0.47929897318255 0.41969961288572 0.96162649495847 
C23   C     0.09410843925234 0.06801560596930 0.02064135839433 
C24   C     0.35838876849492 0.44462070922011 0.95182639210930 
C25   C     0.98980639358002 0.24107497968320 0.03867508670448 
C26   C     0.25914676717084 0.62389613409469 0.93442442677706 
C27   C     0.86778282902246 0.26335598124862 0.04927992460976 
C28   C     0.28583314341053 0.77098412755069 0.92701638606868 
C29   C     0.37547391277447 0.59152999131908 0.10350090846237 
C30   C     0.98329357231009 0.08864693861550 0.86329423931189 
C31   C     0.59211485741332 0.16112833534133 0.07052948952814 
C32   C     0.46328246490984 0.04605150550604 0.90580898092991 
C33   C     0.81009536374443 0.81074478678827 0.86388398981087 
C34   C     0.44662148054388 0.04107575750293 0.08051727898181 
C35   C     0.60860287982428 0.16559881857147 0.89430534603651 
C36   C     0.27379785250809 0.76466619228418 0.10150592489743 
C37   C     0.88404482074882 0.26409644305649 0.87359963163436 
C38   C     0.25097809948846 0.61836440801915 0.11102207645168 
C39   C     0.00598819058680 0.24137846127046 0.86395430500638 
C40   C     0.92938423996819 0.78872057078552 0.84535625322788 
C41   C     0.10449883101161 0.06333597871380 0.84551830179687 
C42   C     0.07922092211690 0.91545969945551 0.83781459440955 
H1    H     0.61149311118946 0.68461809636705 0.07958444673621 
H2    H     0.36181022917358 0.47912531061237 0.11424356754434 
H3    H     0.00007927834677 0.62819277513532 0.99966176098385 
H4    H     0.73647691813761 0.40450556383951 0.98187020756958 
H5    H     0.17073154293163 0.90314413510273 0.01400859029121 
H6    H     0.46176442205232 0.30303241099679 0.96346612913112 
H7    H     0.20961728896302 0.16789958892395 0.02496609036593 
H8    H     0.24095972912454 0.34822061305978 0.94733804716829 
H9    H     0.10781072118403 0.33802550615828 0.03902001752852 
H10   H     0.14210632954212 0.52525567624857 0.93515966750929 
H11   H     0.88603044302719 0.37884293847178 0.05706904145646 
H12   H     0.19040781326907 0.79372921487654 0.92317842624701 
H13   H     0.61721204348994 0.28031469229339 0.07394781739090 
H14   H     0.36361153810281 0.06284218726846 0.90532060266925 
H15   H     0.69481309957238 0.71141004959838 0.86740968382483 
H16   H     0.35209355259506 0.06162656264780 0.09089651683358 
H17   H     0.62824424397917 0.28130746257527 0.88563127054353 
H18   H     0.18166019631664 0.78991071595871 0.11057079799425 
H19   H     0.89778686620759 0.37915237014993 0.86977047540820 
H20   H     0.13965614442141 0.52690222677360 0.12666190640966 
H21   H     0.11948801262846 0.33773205159515 0.85293941831073 
H22   H     0.90598121037870 0.67191116442090 0.83616719438601 
H23   H     0.21706027799370 0.16328063893765 0.83582749866270 
H24   H     0.17299323802393 0.89772583161385 0.82354563800998 
