data_stdin
_audit_creation_method 'critic2'
_audit_creation_date 2023-8-11
_chemical_formula_sum 'C42 H24'
_cell_formula_units_Z 2
_cell_length_a        16.2243843665
_cell_length_b         7.8571573708
_cell_length_c        10.9162555915
_cell_angle_alpha       106.7357
_cell_angle_beta        82.4092
_cell_angle_gamma        93.1808
_cell_volume          1320.733505
_space_group_crystal_system triclinic
_space_group_IT_number 2
_space_group_name_H-M_alt 'P-1'
_space_group_name_Hall '-P 1'
loop_
_symmetry_equiv_pos_site_id
_symmetry_equiv_pos_as_xyz
 1 'x,y,z'
 2 '-x,-y,-z'
loop_
_atom_site_label
_atom_site_type_symbol
_atom_site_fract_x
_atom_site_fract_y
_atom_site_fract_z
C1    C     0.80360136036321 0.12596004425167 0.77762782514357 
C2    C     0.84210144898964 0.28674906073094 0.75599531887833 
C3    C     0.73739886493020 0.02664499715514 0.70935389640168 
C4    C     0.80376897295623 0.40163786954125 0.69835057259206 
C5    C     0.72273324497003 0.02009360071891 0.58004716157155 
C6    C     0.71492608100375 0.41532921570101 0.69989382912083 
C7    C     0.78613955439635 0.04972700333626 0.48093345455364 
C8    C     0.65201272836618 0.38206745596191 0.79769824313212 
C9    C     0.83232577445761 0.06161405256798 0.87365008381997 
C10   C     0.92333903269146 0.33431191009823 0.79236920494610 
C11   C     0.68366657569551 0.92206366189384 0.77441404182981 
C12   C     0.85751708031390 0.50711346119784 0.63442916135549 
C13   C     0.64263867643873 0.96369143166414 0.54251647895869 
C14   C     0.68811974784651 0.46987306892640 0.59802055807988 
C15   C     0.87240017927805 0.04865057277115 0.48960767263827 
C16   C     0.66653113588037 0.39233111893793 0.92811607045553 
C17   C     0.76241324704325 0.06430585946825 0.36262747243400 
C18   C     0.56874057572518 0.34937707260597 0.76808457626406 
C19   C     0.90867327517685 0.12840437789138 0.92214260608069 
C20   C     0.95545506381727 0.25227171144368 0.87630068173710 
C21   C     0.78408689579041 0.93268326237893 0.92208684694193 
C22   C     0.97210907516778 0.46219282949360 0.74319309228127 
C23   C     0.70850649258926 0.87697733677137 0.88133630813071 
C24   C     0.94215836302894 0.53501933287838 0.65852847794937 
C25   C     0.60655332322802 0.85670731197389 0.72955868735981 
C26   C     0.82638166497097 0.58424504464739 0.54697769126763 
C27   C     0.58413997817442 0.88776874941979 0.62182896392275 
C28   C     0.74563292395083 0.55385242936903 0.52230974431244 
C29   C     0.93135159206623 0.07512967703905 0.39302248767789 
C30   C     0.60496699121050 0.32069078763411 0.00718807263969 
C31   C     0.62159940390472 0.97454319379862 0.42208263059469 
C32   C     0.60313549948243 0.44732296165613 0.57600917592582 
C33   C     0.73576083749973 0.48333201941817 0.98598153346579 
C34   C     0.67812348452760 0.03110631863242 0.33739151174492 
C35   C     0.54614697983150 0.38010545406109 0.65463571042844 
C36   C     0.82365530368089 0.10070094456482 0.26786524936265 
C37   C     0.50736569208880 0.28638072243425 0.85195245449159 
C38   C     0.90698669099222 0.10768754062890 0.28282121527796 
C39   C     0.52656590433411 0.26090129347996 0.96320382139454 
C40   C     0.74774086560059 0.48929181362192 0.11027711948082 
C41   C     0.62045314895840 0.32157544781864 0.13195600420822 
C42   C     0.69112854606232 0.40214875447310 0.18258422891092 
H1    H     0.89241173247488 0.02402660119696 0.57376208949258 
H2    H     0.99706644051449 0.07075698556547 0.40217488989027 
H3    H     0.93025863801573 0.07361408607277 0.99304271861509 
H4    H     0.01680132041429 0.29372883984917 0.90574251215778 
H5    H     0.80678697931188 0.88567312064494 0.99589886174783 
H6    H     0.03487627123900 0.49423502720268 0.76937353819904 
H7    H     0.66834637589688 0.78876180395751 0.92469043094001 
H8    H     0.98169929892447 0.61990615237163 0.61138791204798 
H9    H     0.56616855838305 0.77975348903859 0.78219865982885 
H10   H     0.86855377668479 0.66258010376419 0.49740164206735 
H11   H     0.52375460083219 0.84297993030427 0.58995601403777 
H12   H     0.72249188302851 0.60527793545446 0.45104035073207 
H13   H     0.55867138768912 0.93629280723593 0.39939269615006 
H14   H     0.58488151833671 0.48412043456465 0.49465850619824 
H15   H     0.77972356514372 0.55217517689320 0.93201493528656 
H16   H     0.66128580322399 0.04212576624755 0.24660827214253 
H17   H     0.48149423653769 0.35784184633727 0.63627555945641 
H18   H     0.80330017748869 0.12034242625556 0.18182999423252 
H19   H     0.44484812662760 0.25764704674965 0.82425112697186 
H20   H     0.95397714661725 0.13409795734270 0.20932379725666 
H21   H     0.48074498364876 0.20459150699439 0.02353215693043 
H22   H     0.80109129094513 0.56216262133650 0.15246304559218 
H23   H     0.57413664773803 0.26120828509518 0.18922202482884 
H24   H     0.70233303523843 0.40082479120208 0.27836941457856 
