data_stdin
_audit_creation_method 'critic2'
_audit_creation_date 2023-8-11
_chemical_formula_sum 'C42 H24'
_cell_formula_units_Z 8
_cell_length_a        19.7841897085
_cell_length_b         8.7390378937
_cell_length_c        31.2350047061
_cell_angle_alpha        89.9995
_cell_angle_beta        90.0004
_cell_angle_gamma        89.9997
_cell_volume          5400.369378
_space_group_crystal_system orthorhombic
_space_group_IT_number 61
_space_group_name_H-M_alt 'Pbca'
_space_group_name_Hall '-P 2ac 2ab'
loop_
_symmetry_equiv_pos_site_id
_symmetry_equiv_pos_as_xyz
 1 'x,y,z'
 2 '-x,-y,-z'
 3 '-1/2+x,-1/2-y,-z'
 4 '-1/2-x,-1/2+y,z'
 5 '-x,-1/2+y,-1/2-z'
 6 'x,-1/2-y,-1/2+z'
 7 '-1/2-x,-y,-1/2+z'
 8 '-1/2+x,y,-1/2-z'
loop_
_atom_site_label
_atom_site_type_symbol
_atom_site_fract_x
_atom_site_fract_y
_atom_site_fract_z
C1    C     0.57554891084364 0.37910942919582 0.90735920429183 
C2    C     0.53814577311326 0.23743942887764 0.90870913908336 
C3    C     0.54823723636926 0.52288998273386 0.89231578163548 
C4    C     0.48006399794431 0.20608576212667 0.88217585575623 
C5    C     0.47751874586934 0.56560217974863 0.89291270301391 
C6    C     0.46679858737664 0.27917880322935 0.84141895272776 
C7    C     0.42841513070171 0.50789248406026 0.92347795317254 
C8    C     0.51736080143375 0.34091893677608 0.81249503764603 
C9    C     0.64411051716180 0.37543267161750 0.92103120934850 
C10   C     0.55993001808769 0.12132578291207 0.93753923723719 
C11   C     0.59516381931569 0.63136064546223 0.87563919971600 
C12   C     0.43275218233734 0.09620735893362 0.89752462646011 
C13   C     0.45595043236771 0.68087966072153 0.86382415520477 
C14   C     0.39783087424854 0.28654082433496 0.82815116212022 
C15   C     0.44651888945465 0.42830835540416 0.96134084644525 
C16   C     0.58742284313959 0.29059530555782 0.81019974463211 
C17   C     0.35839086620923 0.54439254502140 0.91779096172242 
C18   C     0.49541162924959 0.44740601632907 0.78089267983331 
C19   C     0.66769106066524 0.24973096909384 0.94592392207176 
C20   C     0.62539074450690 0.13162523473996 0.95646491665022 
C21   C     0.68826874484900 0.49774709909026 0.90987308229357 
C22   C     0.51599050358909 0.99671035772337 0.94718186254169 
C23   C     0.66530505100466 0.61646001183937 0.88529740814767 
C24   C     0.45218081153000 0.99186264637211 0.93038036054483 
C25   C     0.57168776672263 0.75257766688813 0.84905805518819 
C26   C     0.36655298306919 0.09127576007207 0.87969022549216 
C27   C     0.50428842057586 0.76898802204762 0.84071357678479 
C28   C     0.34846126671575 0.19223669799633 0.84829343586601 
C29   C     0.39838998652581 0.37764443381852 0.99011241481344 
C30   C     0.63371555762612 0.37053834919963 0.78283954237543 
C31   C     0.38570637313330 0.71332710751182 0.85876562761834 
C32   C     0.37828743298678 0.38586051486374 0.79429813604174 
C33   C     0.61169320623871 0.15542987461618 0.83007189479294 
C34   C     0.33835950932520 0.64416949616937 0.88396530981810 
C35   C     0.42530859827127 0.47230556530063 0.77338335629041 
C36   C     0.30983762987668 0.48713065680072 0.94701135039237 
C37   C     0.54322096452627 0.52661824796459 0.75482889081710 
C38   C     0.32919602307864 0.40290808773189 0.98228515208403 
C39   C     0.61044253099520 0.49362982826547 0.75680649742158 
C40   C     0.67804482152041 0.10800765695812 0.82575922029471 
C41   C     0.70170674067713 0.32131044671236 0.77963193831157 
C42   C     0.72420963939121 0.19290802323218 0.80098727488154 
H1    H     0.49949938257553 0.41011255106387 0.96865206829961 
H2    H     0.41416329552855 0.32126004743411 0.01956164043168 
H3    H     0.71943132732939 0.25366772812648 0.95773373181587 
H4    H     0.64156351848696 0.04100547914137 0.97816434020922 
H5    H     0.74107601490553 0.49197602878429 0.91968956435578 
H6    H     0.53290331871195 0.91015394490160 0.96982078831092 
H7    H     0.70003273788633 0.70417833255845 0.87392116197647 
H8    H     0.41655796732745 0.90342809942049 0.94014580277334 
H9    H     0.60871248371397 0.82727487205198 0.83400157975025 
H10   H     0.33059460956834 0.00883188022644 0.89250128671689 
H11   H     0.48623476036079 0.85465486197594 0.81811527823493 
H12   H     0.29672659657257 0.19744566431062 0.83639485918942 
H13   H     0.37113359738808 0.79628751151981 0.83441733804574 
H14   H     0.32481830573429 0.39462926356296 0.78633991383944 
H15   H     0.57708858753533 0.08465538008795 0.84828911034678 
H16   H     0.28483954751939 0.67003534114592 0.88028636543536 
H17   H     0.41031358904327 0.55491836161835 0.74911185564330 
H18   H     0.25679149075596 0.51508832566805 0.94173638723774 
H19   H     0.52450440995834 0.61421265502548 0.73310736816561 
H20   H     0.29164867969457 0.36129163019836 0.00488185552899 
H21   H     0.64644765530595 0.55513755649540 0.73680320304487 
H22   H     0.69492746453120 0.00345574648880 0.84141931838956 
H23   H     0.73586932388859 0.38647015677578 0.75922396011574 
H24   H     0.77648115996274 0.15540045574270 0.79814815735354 
