data_stdin
_audit_creation_method 'critic2'
_audit_creation_date 2023-8-11
_chemical_formula_sum 'C42 H24'
_cell_formula_units_Z 8
_cell_length_a        38.0990016146
_cell_length_b         9.1899443366
_cell_length_c        15.2964812278
_cell_angle_alpha        90.0007
_cell_angle_beta        89.9992
_cell_angle_gamma        90.0004
_cell_volume          5355.721852
_space_group_crystal_system orthorhombic
_space_group_IT_number 60
_space_group_name_H-M_alt 'Pbcn'
_space_group_name_Hall '-P 2n 2ab'
loop_
_symmetry_equiv_pos_site_id
_symmetry_equiv_pos_as_xyz
 1 'x,y,z'
 2 '-x,-y,-z'
 3 '-1/2-x,-1/2-y,-1/2+z'
 4 '-1/2+x,-1/2+y,-1/2-z'
 5 '-1/2+x,-1/2-y,-z'
 6 '-1/2-x,-1/2+y,z'
 7 '-x,y,-1/2-z'
 8 'x,-y,-1/2+z'
loop_
_atom_site_label
_atom_site_type_symbol
_atom_site_fract_x
_atom_site_fract_y
_atom_site_fract_z
C1    C     0.88298138456792 0.41308747623373 0.36691297196405 
C2    C     0.85381556048182 0.36081287617739 0.41823730617102 
C3    C     0.89399909520887 0.34976082352294 0.28499608746754 
C4    C     0.84119362794381 0.21285302334638 0.41597571524601 
C5    C     0.87134924287106 0.26961027189490 0.22661572207053 
C6    C     0.86216271889014 0.08890622551406 0.38993306945119 
C7    C     0.83359953048337 0.28862209216369 0.22139020040519 
C8    C     0.90012818202179 0.07906568628675 0.39546525415069 
C9    C     0.90208061234039 0.53397232674525 0.39987217003775 
C10   C     0.83691763046313 0.46077336413325 0.47533463127881 
C11   C     0.92972671759594 0.36908661811938 0.25997398607745 
C12   C     0.80554443911836 0.18898167634350 0.43997290052453 
C13   C     0.88724184383257 0.17345739615839 0.16570561913548 
C14   C     0.84358232408986 0.96608765743537 0.35629566567772 
C15   C     0.81586313616716 0.41208484998722 0.25507308540342 
C16   C     0.92200705118270 0.16094968882377 0.45608010041445 
C17   C     0.81324294969308 0.18554693874390 0.17287743179090 
C18   C     0.91707303772357 0.97460204253269 0.34117450006299 
C19   C     0.88682657136681 0.62342994138711 0.46570472070241 
C20   C     0.85395389464900 0.59408015728766 0.49700044905333 
C21   C     0.93620509371072 0.56364387835268 0.36642797181956 
C22   C     0.80324863526468 0.42579946868285 0.51034303648507 
C23   C     0.95042138002132 0.47640477167337 0.30321352792018 
C24   C     0.78698110562898 0.29862065404374 0.48706675360220 
C25   C     0.94433067723048 0.28107871447570 0.19248502663311 
C26   C     0.78883935893947 0.05557557510943 0.41727257130379 
C27   C     0.92417531471426 0.17866256905861 0.15131923177709 
C28   C     0.80681165049529 0.95209029471306 0.37117802219122 
C29   C     0.77987366363286 0.42727684932040 0.24811669613315 
C30   C     0.95946446739244 0.15575970070075 0.44682176190294 
C31   C     0.86615651585111 0.07430630109214 0.11677491881473 
C32   C     0.86175082259844 0.85859704874692 0.30709910631448 
C33   C     0.90868631595236 0.24012703665810 0.52850863215736 
C34   C     0.83046161999423 0.07433550735924 0.12385555125818 
C35   C     0.89709973845402 0.86966900779282 0.29414602451485 
C36   C     0.77635134559523 0.20186732233761 0.16818213844649 
C37   C     0.95445530441330 0.97048854361105 0.33505823440069 
C38   C     0.75967936876103 0.31968653316852 0.20583641651475 
C39   C     0.97496605490859 0.06108412983164 0.38377929146570 
C40   C     0.93024241385828 0.32121424274743 0.58252797567423 
C41   C     0.98099350825613 0.24115646274839 0.50223867964232 
C42   C     0.96670922179234 0.32543418875333 0.56793530521946 
H1    H     0.83096710646802 0.49807815177256 0.28591109227427 
H2    H     0.76705470699958 0.52359972284574 0.27446664771513 
H3    H     0.90112741660620 0.71914754165332 0.48764069970692 
H4    H     0.84095411973686 0.66895448980378 0.54146133918158 
H5    H     0.95102859925464 0.65356214637074 0.39447923551092 
H6    H     0.79054930689744 0.50449386327784 0.55333888595702 
H7    H     0.97749744355402 0.49135007258035 0.28244519495908 
H8    H     0.76011126025836 0.27566454802120 0.50715326939304 
H9    H     0.97207906859518 0.29333347183479 0.17680354380795 
H10   H     0.76130046612919 0.04002317946498 0.43411630105567 
H11   H     0.93546308410088 0.10343466307194 0.10386968928884 
H12   H     0.79357158371948 0.85441122084364 0.34791368642602 
H13   H     0.87941688860412 0.99816496055347 0.07362320912343 
H14   H     0.84676473759269 0.77006720347641 0.27792603821574 
H15   H     0.88077428592656 0.23845739430621 0.54226800436404 
H16   H     0.81469276112307 0.99637785787148 0.08732834298815 
H17   H     0.91090601176455 0.79330610416419 0.25205407157040 
H18   H     0.76138159501595 0.12009966410609 0.13265394462318 
H19   H     0.96620869383231 0.89282852482572 0.28982654694474 
H20   H     0.73129997807909 0.33162272950330 0.20056962951776 
H21   H     0.00342640511373 0.05777874917483 0.37768481784496 
H22   H     0.91880886907000 0.38391560214254 0.63581562572523 
H23   H     0.00931489637052 0.23774486066703 0.49232584061137 
H24   H     0.98348100146426 0.39309605636365 0.60876601984622 
