data_stdin
_audit_creation_method 'critic2'
_audit_creation_date 2023-8-11
_chemical_formula_sum 'C42 H24'
_cell_formula_units_Z 4
_cell_length_a        17.0393187957
_cell_length_b        10.7073199612
_cell_length_c        14.7164719109
_cell_angle_alpha        89.9996
_cell_angle_beta        79.1389
_cell_angle_gamma        89.9990
_cell_volume          2636.857425
_space_group_crystal_system monoclinic
_space_group_IT_number 14
_space_group_name_H-M_alt 'P2_1/c'
_space_group_name_Hall '-P 2ybc'
loop_
_symmetry_equiv_pos_site_id
_symmetry_equiv_pos_as_xyz
 1 'x,y,z'
 2 '-x,-y,-z'
 3 '-x,-1/2+y,-1/2-z'
 4 'x,-1/2-y,-1/2+z'
loop_
_atom_site_label
_atom_site_type_symbol
_atom_site_fract_x
_atom_site_fract_y
_atom_site_fract_z
C1    C     0.14817106725262 0.30954833004508 0.46879327556865 
C2    C     0.16961395202453 0.40211180815448 0.39710844803084 
C3    C     0.20240141316839 0.25960382283756 0.52449231805139 
C4    C     0.25030274265836 0.42385362150621 0.34846105083126 
C5    C     0.27138553611764 0.32340193306780 0.54658167071462 
C6    C     0.31314947736453 0.33117228554786 0.33562315404186 
C7    C     0.28074772556621 0.45821458373041 0.54886541220368 
C8    C     0.30099849239412 0.19743971878049 0.33585043131944 
C9    C     0.06866559999823 0.26212044744585 0.48332466292926 
C10   C     0.10752830024063 0.47550889300142 0.37170232351342 
C11   C     0.18516293377989 0.13744054517885 0.56168488034686 
C12   C     0.26850853225321 0.54459635567281 0.30985477521720 
C13   C     0.33159544024568 0.24956535647324 0.57567929558621 
C14   C     0.39337827829670 0.37605861190820 0.32018708550151 
C15   C     0.21667122241958 0.54338110577710 0.55183070823048 
C16   C     0.23046076119989 0.13674082009519 0.31474560913226 
C17   C     0.35673358725856 0.50955879345194 0.55692111017204 
C18   C     0.36404680167447 0.11949840568715 0.35340321108450 
C19   C     0.00887213046863 0.32709749958364 0.44630434152008 
C20   C     0.02666852987388 0.43594154547302 0.39823725502264 
C21   C     0.04959917702618 0.14897414226280 0.53348918710092 
C22   C     0.12731675880482 0.58718857618685 0.31951595811865 
C23   C     0.10804253127581 0.08408827710049 0.56524918383828 
C24   C     0.20522920266214 0.62518718092314 0.29581233044247 
C25   C     0.24447882345048 0.06943208342674 0.59691536238606 
C26   C     0.34972125486032 0.58302451248988 0.28446676755277 
C27   C     0.31763670451027 0.12114891094548 0.59759448803309 
C28   C     0.40988742422709 0.50366292634191 0.29655703902569 
C29   C     0.22827041524100 0.67111932510095 0.55362978759975 
C30   C     0.21731761045784 0.00732468533014 0.33642717697926 
C31   C     0.40547300817073 0.30446450083540 0.58699960674881 
C32   C     0.45686954456057 0.29312922345309 0.32859405160430 
C33   C     0.17584848633017 0.19685045161390 0.26771353162497 
C34   C     0.41926964764669 0.42906432098715 0.57339425112989 
C35   C     0.44129770074728 0.17085387755425 0.35229570257716 
C36   C     0.36801565437909 0.64065033300374 0.55416856995001 
C37   C     0.35054440445611 0.98907789227862 0.37003022221199 
C38   C     0.30511571501331 0.72091522751458 0.55154841112501 
C39   C     0.27825276753244 0.93603358085490 0.36686297202142 
C40   C     0.10756619124071 0.13765589611575 0.25206092714794 
C41   C     0.14534201786605 0.95030365698421 0.32337247348285 
C42   C     0.09034537592054 0.01462859593922 0.28339879391913 
H1    H     0.15682784285683 0.50733029918286 0.55443116350494 
H2    H     0.17752588061205 0.73393554472156 0.55687450704175 
H3    H     0.94790794100853 0.29166722283872 0.46156412648442 
H4    H     0.97983399833348 0.49221166408746 0.37758044015192 
H5    H     0.98909714692830 0.11212662487674 0.54177351533703 
H6    H     0.07898932988137 0.64366805601103 0.30209473200745 
H7    H     0.09586685241916 0.99248640470987 0.59714768770977 
H8    H     0.22066186665449 0.71407500615803 0.26098084675914 
H9    H     0.23019742232564 0.97542669102387 0.62285286876388 
H10   H     0.36239311385105 0.67784768606252 0.25888419706893 
H11   H     0.36431836305381 0.06766304866137 0.62125250780097 
H12   H     0.47168735834606 0.53535054679210 0.28457413016735 
H13   H     0.45074684140149 0.24406699142530 0.60719350896287 
H14   H     0.51738480481445 0.33038114332893 0.31859005075198 
H15   H     0.18860582194262 0.29076703031079 0.24164139318948 
H16   H     0.47658477038265 0.46964796366753 0.57954637948556 
H17   H     0.48862677550167 0.10934263127896 0.36608864253543 
H18   H     0.42752291464689 0.67692291562123 0.55551637045342 
H19   H     0.39907735471828 0.93296235056678 0.38739016416465 
H20   H     0.31432492778945 0.82157314131258 0.54965724854959 
H21   H     0.26734117316114 0.83782457812583 0.38401373139045 
H22   H     0.06760784543254 0.18736880231182 0.21482948405981 
H23   H     0.13480279881422 0.85325701971672 0.34419395629821 
H24   H     0.03534726549973 0.96891240453616 0.27402145862900 
