data_stdin
_audit_creation_method 'critic2'
_audit_creation_date 2023-8-11
_chemical_formula_sum 'C42 H24'
_cell_formula_units_Z 2
_cell_length_a        10.4782789912
_cell_length_b        13.7300167400
_cell_length_c        10.2332058405
_cell_angle_alpha        90.0000
_cell_angle_beta        65.3510
_cell_angle_gamma        90.0000
_cell_volume          1338.071462
_space_group_crystal_system monoclinic
_space_group_IT_number 4
_space_group_name_H-M_alt 'P2_1'
_space_group_name_Hall 'P 2yb'
loop_
_symmetry_equiv_pos_site_id
_symmetry_equiv_pos_as_xyz
 1 'x,y,z'
 2 '-x,-1/2+y,-z'
loop_
_atom_site_label
_atom_site_type_symbol
_atom_site_fract_x
_atom_site_fract_y
_atom_site_fract_z
C1    C     0.88660652544598 0.00564318313684 0.93465848513911 
C2    C     0.88475363914912 0.95443200164963 0.05854134979463 
C3    C     0.76982077340636 0.00871222808954 0.89443995367156 
C4    C     0.79614467134942 0.87162073587781 0.12274189897065 
C5    C     0.62415095939589 0.99521250782351 0.99269485260303 
C6    C     0.74195626312247 0.80768729667346 0.04598068463361 
C7    C     0.56718080394169 0.01514351930445 0.14600816768232 
C8    C     0.81013338284637 0.78877857396987 0.89356155101707 
C9    C     0.01042085251598 0.05820188609382 0.84919545502981 
C10   C     0.97270042601320 0.98942190337889 0.12287517042840 
C11   C     0.80045305686914 0.02960611332509 0.74783135217271 
C12   C     0.75755912870240 0.85345989017864 0.27106434609927 
C13   C     0.52758779457214 0.96919319300879 0.93388884083349 
C14   C     0.61291386659810 0.75905405353505 0.12765499848194 
C15   C     0.63795217734794 0.07206579465099 0.21080843902211 
C16   C     0.96034616258260 0.79634435834985 0.80856353715218 
C17   C     0.42666017101154 0.98543720341867 0.23582292318964 
C18   C     0.72661069566843 0.75213185202880 0.82526975949140 
C19   C     0.10984429698052 0.08063607640129 0.90656513634597 
C20   C     0.08494788987537 0.05428384100661 0.04416895538787 
C21   C     0.03191815983764 0.08906063379141 0.70858611979518 
C22   C     0.94518919393427 0.95963419799817 0.26573434420409 
C23   C     0.93426533964571 0.06846387608470 0.65604563894849 
C24   C     0.83447073129335 0.89928848794776 0.34072345524259 
C25   C     0.69650212319737 0.01292537261074 0.69458196998687 
C26   C     0.64087099884926 0.79149650758792 0.34769079567722 
C27   C     0.56771220592435 0.97631376886562 0.78293165383292 
C28   C     0.56420021514279 0.75240789942076 0.27992307456557 
C29   C     0.58011258109039 0.08975935436422 0.35720920110525 
C30   C     0.01410259257688 0.79010038913410 0.65532717977044 
C31   C     0.38797089876066 0.94047888393908 0.02653468264689 
C32   C     0.53553603519151 0.71695259542387 0.05597373905417 
C33   C     0.05935918980448 0.80029167097581 0.86957247597329 
C34   C     0.34134106834961 0.94359574634905 0.17238781590184 
C35   C     0.58673545801261 0.72039629026014 0.90932203919286 
C36   C     0.37001284069806 0.00380740689887 0.38551906522670 
C37   C     0.78451873222147 0.74376617533072 0.67231372016681 
C38   C     0.44637854226325 0.05315480808468 0.44660595030042 
C39   C     0.92166096450488 0.76672094369170 0.58966919443947 
C40   C     0.20154406720261 0.80910063363291 0.78464681490118 
C41   C     0.15990144953073 0.80142236843976 0.57060480034633 
C42   C     0.25237347101182 0.81345153929982 0.63380810942786 
H1    H     0.73880589997988 0.10446683508050 0.14450575352314 
H2    H     0.63898201906326 0.13348536813476 0.40186096859598 
H3    H     0.20165326750808 0.12399514268311 0.84202635232737 
H4    H     0.15344927291814 0.07947158544771 0.09305430930075 
H5    H     0.12934125052208 0.12656846037529 0.64273934972227 
H6    H     0.00948283012356 0.99001159665526 0.31639035152803 
H7    H     0.95431187496082 0.08609059767466 0.54534829587647 
H8    H     0.80593574893624 0.88325344821133 0.45358557721983 
H9    H     0.72296771986891 0.02751179427549 0.58157743529767 
H10   H     0.61015852441624 0.77985161323632 0.46220863989334 
H11   H     0.49062329398901 0.95820941480670 0.74093747905070 
H12   H     0.46787586203352 0.71187221929165 0.33976177535483 
H13   H     0.31850077398631 0.91688751991347 0.97788558516263 
H14   H     0.43386009854032 0.68415294731070 0.12014021435977 
H15   H     0.02327457172545 0.79402945972239 0.98520784501317 
H16   H     0.23553871772793 0.91955694329454 0.24202837684960 
H17   H     0.52482986341094 0.69321798168554 0.85420433528900 
H18   H     0.26344594446360 0.97972112828910 0.45208201027662 
H19   H     0.71607307934528 0.71786469760187 0.62356254494615 
H20   H     0.40175275474340 0.06638437921790 0.56208226808191 
H21   H     0.96457674948350 0.76271130229897 0.47282407058759 
H22   H     0.27497544281504 0.81072227431558 0.83482343789615 
H23   H     0.19836283202542 0.79852689751665 0.45385054153940 
H24   H     0.36381059051816 0.82385735978055 0.56732670434730 
