data_stdin
_audit_creation_method 'critic2'
_audit_creation_date 2023-8-11
_chemical_formula_sum 'C42 H24'
_cell_formula_units_Z 8
_cell_length_a        38.5283839845
_cell_length_b        10.0741378905
_cell_length_c        14.0977083494
_cell_angle_alpha        89.9994
_cell_angle_beta        85.8445
_cell_angle_gamma        90.0002
_cell_volume          5457.502551
_space_group_crystal_system monoclinic
_space_group_IT_number 15
_space_group_name_H-M_alt 'C2/c'
_space_group_name_Hall '-C 2yc'
loop_
_symmetry_equiv_pos_site_id
_symmetry_equiv_pos_as_xyz
 1 'x,y,z'
 2 '-x,-y,-z'
 3 '-x,y,-1/2-z'
 4 'x,-y,-1/2+z'
 5 '-1/2+x,-1/2+y,z'
 6 '-1/2-x,-1/2-y,-z'
 7 '-1/2-x,-1/2+y,-1/2-z'
 8 '-1/2+x,-1/2-y,-1/2+z'
loop_
_atom_site_label
_atom_site_type_symbol
_atom_site_fract_x
_atom_site_fract_y
_atom_site_fract_z
C1    C     0.38169204428790 0.76891727778144 0.79004653643291 
C2    C     0.35184821795584 0.83205826965326 0.83852345471045 
C3    C     0.39714461476658 0.64732857859780 0.82103436291187 
C4    C     0.34206127960405 0.81528134034428 0.93833348569852 
C5    C     0.37878205553727 0.54549135114864 0.87700613675066 
C6    C     0.36602212396833 0.77887251160156 0.00827007134735 
C7    C     0.34165917954957 0.51978979331301 0.87680311949525 
C8    C     0.40302056016495 0.80596508887311 0.00025013957010 
C9    C     0.39714574473654 0.83314497921591 0.70783801229274 
C10   C     0.33134539581807 0.91778852103480 0.78531066186836 
C11   C     0.43310967711478 0.62651762668958 0.79363019347807 
C12   C     0.30659289264158 0.83697218138326 0.96970087084083 
C13   C     0.39877735417475 0.45666881665923 0.92917910898571 
C14   C     0.35167422457041 0.71408924230216 0.09205610165362 
C15   C     0.32073471250179 0.57086665608319 0.80657434640366 
C16   C     0.41946857719526 0.91099387642527 0.94221389900734 
C17   C     0.32571124219108 0.42680241957647 0.94345921713700 
C18   C     0.42453877468663 0.73147252986764 0.05852405378368 
C19   C     0.37809015033024 0.93183923149472 0.66127309292904 
C20   C     0.34497729726828 0.96464190320020 0.69473438352848 
C21   C     0.43162128812154 0.79874941912709 0.67348273506303 
C22   C     0.29783271817642 0.95792255664676 0.82447751040006 
C23   C     0.44985626664901 0.70502760293150 0.71951853515810 
C24   C     0.28480687453454 0.91018065337214 0.91081566928761 
C25   C     0.45188386162388 0.52781483551068 0.84114200198852 
C26   C     0.29350739774159 0.78533063749358 0.05946105450699 
C27   C     0.43565727787409 0.45247035335710 0.91188597246116 
C28   C     0.31497715615374 0.71603543715717 0.11491030592352 
C29   C     0.28582589587273 0.53956273415254 0.80560230838949 
C30   C     0.45659616046829 0.91268117561955 0.92606535109726 
C31   C     0.38197364467546 0.36728240783430 0.99632087996543 
C32   C     0.37407952853723 0.65052145201720 0.15382033071600 
C33   C     0.40100222687883 0.01955488965273 0.90625579771845 
C34   C     0.34661284538088 0.35649090134131 0.00622216262634 
C35   C     0.40932277190184 0.65148926205530 0.13371537674091 
C36   C     0.28971451644526 0.39870773422950 0.94230258922727 
C37   C     0.46153446195189 0.73956839126730 0.04359629441323 
C38   C     0.26981077306446 0.45449719000956 0.87504470126645 
C39   C     0.47701336367516 0.82193385572134 0.97632189873785 
C40   C     0.41744755651243 0.11473926281542 0.84841074321071 
C41   C     0.47282792349131 0.00928325861413 0.86476514031451 
C42   C     0.45352977225205 0.10729528539563 0.82468496034503 
H1    H     0.33254410856187 0.63281984025855 0.75014003496185 
H2    H     0.27094516255363 0.58031357551168 0.74959561392171 
H3    H     0.39006046494433 0.97754936307735 0.59719734050766 
H4    H     0.32944890981496 0.03318443640455 0.65576598251088 
H5    H     0.44341943145571 0.85337832374454 0.61268257842830 
H6    H     0.28253723015839 0.02400626699275 0.78283008295730 
H7    H     0.47716775200480 0.68677617789519 0.69807523093115 
H8    H     0.25819969417075 0.93170304269817 0.93786159094050 
H9    H     0.47967733413889 0.51667805634582 0.82246885654403 
H10   H     0.26600497017046 0.79809404596321 0.08116963903562 
H11   H     0.45026044768386 0.38258755169552 0.95248420985629 
H12   H     0.30478539944148 0.66764923211742 0.18022900789097 
H13   H     0.39817474603225 0.30700782477678 0.03939453026197 
H14   H     0.36252844386849 0.59875599590446 0.21597280342198 
H15   H     0.37332118969085 0.02975607519606 0.92514242732979 
H16   H     0.33416280069757 0.28803238435629 0.05803677370194 
H17   H     0.42629816772031 0.59602263052931 0.17787406556896 
H18   H     0.27817447998749 0.32872543598716 0.99455341683284 
H19   H     0.47720264272062 0.67708210961835 0.08701829667855 
H20   H     0.24222978755282 0.43086574018407 0.87444368362738 
H21   H     0.50522879313234 0.82569147590747 0.96446985407494 
H22   H     0.40232481044895 0.19568800017337 0.82128348812753 
H23   H     0.50101241867321 0.00613602926465 0.85117583568021 
H24   H     0.46612219776400 0.18091558005017 0.77716616568449 
