data_stdin
_audit_creation_method 'critic2'
_audit_creation_date 2023-8-11
_chemical_formula_sum 'C42 H24'
_cell_formula_units_Z 2
_cell_length_a         8.8051919966
_cell_length_b        14.4356136373
_cell_length_c        11.0700502139
_cell_angle_alpha        77.4915
_cell_angle_beta       107.8632
_cell_angle_gamma        87.5419
_cell_volume          1298.391911
_space_group_crystal_system triclinic
_space_group_IT_number 2
_space_group_name_H-M_alt 'P-1'
_space_group_name_Hall '-P 1'
loop_
_symmetry_equiv_pos_site_id
_symmetry_equiv_pos_as_xyz
 1 'x,y,z'
 2 '-x,-y,-z'
loop_
_atom_site_label
_atom_site_type_symbol
_atom_site_fract_x
_atom_site_fract_y
_atom_site_fract_z
C1    C     0.09506045971646 0.27175276381850 0.28612460900657 
C2    C     0.12072040004103 0.17601011176074 0.27083710362405 
C3    C     0.13499186883641 0.35618645144788 0.20959127667549 
C4    C     0.24049315959285 0.14467202651902 0.21919567652684 
C5    C     0.15275143378642 0.36554761396741 0.08167734967759 
C6    C     0.38792670116861 0.18671254757332 0.22673039839543 
C7    C     0.07109083137218 0.31397181209789 0.98629541920718 
C8    C     0.46274688588290 0.23977669246968 0.32143473590103 
C9    C     0.02550816281647 0.28262212359185 0.38341016090280 
C10   C     0.02027748995806 0.10830400862998 0.30751504300919 
C11   C     0.15665342381010 0.43757949560796 0.26412276760046 
C12   C     0.20924281285380 0.06840895830739 0.15582846903745 
C13   C     0.24438261475408 0.43730312796209 0.04063754394343 
C14   C     0.46372651351228 0.17594965581231 0.13309637777445 
C15   C     0.93535022645650 0.26659062650847 0.99343205734945 
C16   C     0.44622969317371 0.22540205595030 0.45027126887569 
C17   C     0.11482736389406 0.32004820685959 0.87078822782085 
C18   C     0.56667511973253 0.30639991061850 0.28962787408389 
C19   C     0.94938260160493 0.20680392878485 0.43787242023659 
C20   C     0.93525793410815 0.12550316664270 0.39277013030161 
C21   C     0.03010460803645 0.36988562881927 0.42395288177111 
C22   C     0.00518226402911 0.02518935615400 0.25657309976528 
C23   C     0.10310014787122 0.44245017494768 0.37181561341585 
C24   C     0.08650592151610 0.01089662419611 0.17347405713514 
C25   C     0.23136130158530 0.51426444324583 0.21115254012369 
C26   C     0.30120268902097 0.05031784504724 0.07584439828226 
C27   C     0.28591743028525 0.51006914724613 0.10934902602065 
C28   C     0.41789632616055 0.10651576831116 0.05876926909939 
C29   C     0.85105247913592 0.22555663396445 0.89512423993127 
C30   C     0.49278191145579 0.29598715381742 0.52315045882893 
C31   C     0.28884852279782 0.43968553818567 0.92644379932144 
C32   C     0.58325392039938 0.23546920625667 0.11402218537958 
C33   C     0.39869180790376 0.14055165153565 0.51286453260382 
C34   C     0.23236724431240 0.37997911301275 0.84714981802275 
C35   C     0.62430777987904 0.30343319558750 0.18337161063729 
C36   C     0.03157729413392 0.27322221575084 0.77449605206242 
C37   C     0.61594192518208 0.37426336278273 0.36646352333481 
C38   C     0.90004976468926 0.22762569292748 0.78483966345417 
C39   C     0.57220500146555 0.37274624987440 0.47500323502319 
C40   C     0.38233902261114 0.13001918230977 0.63525400288004 
C41   C     0.46779845199495 0.28550685398422 0.64553549456992 
C42   C     0.41089389444021 0.20466905343996 0.70014455221470 
H1    H     0.89332298647890 0.26552685419134 0.07606152294498 
H2    H     0.74436553904850 0.19204530377975 0.90132729856806 
H3    H     0.89219576516527 0.21795471224806 0.50871149374618 
H4    H     0.86287314032957 0.07184714978238 0.42398127383723 
H5    H     0.97823973794789 0.37637987385212 0.49962951728486 
H6    H     0.92301875270123 0.97553812645278 0.28071168619599 
H7    H     0.11633541387353 0.50705654963754 0.40803236234488 
H8    H     0.06416445591041 0.95267235698242 0.12470573608272 
H9    H     0.24588993617275 0.57558914805385 0.25439296787362 
H10   H     0.27193671620540 0.99359153805335 0.02465147965454 
H11   H     0.35187509088942 0.56584573303116 0.07341898835841 
H12   H     0.48122734962033 0.09698382217862 0.99102160305807 
H13   H     0.36895212134285 0.49116828534482 0.90380355908297 
H14   H     0.63672343114576 0.22804433548362 0.03960865311400 
H15   H     0.37738400500876 0.08211200027209 0.46449247638455 
H16   H     0.26667108675992 0.38179439646758 0.76016628094497 
H17   H     0.71009978183150 0.35206209815655 0.16462060884442 
H18   H     0.07169454401702 0.27639678215970 0.69007520241661 
H19   H     0.68820857276595 0.42802002347055 0.33532398209035 
H20   H     0.83248740848619 0.19489814581237 0.70824430004177 
H21   H     0.60420599354759 0.42712925786395 0.53000005539008 
H22   H     0.34891047708906 0.06328982114828 0.68224221725513 
H23   H     0.49913269669801 0.34151390873198 0.69783181274486 
H24   H     0.39142981203327 0.19773933828526 0.79402937310364 
