data_stdin
_audit_creation_method 'critic2'
_audit_creation_date 2023-8-11
_chemical_formula_sum 'C42 H24'
_cell_formula_units_Z 8
_cell_length_a        37.1396625307
_cell_length_b         9.5170804943
_cell_length_c        15.1097433913
_cell_angle_alpha        89.9986
_cell_angle_beta        90.0025
_cell_angle_gamma        89.9998
_cell_volume          5340.707387
_space_group_crystal_system orthorhombic
_space_group_IT_number 61
_space_group_name_H-M_alt 'Pbca'
_space_group_name_Hall '-P 2ac 2ab'
loop_
_symmetry_equiv_pos_site_id
_symmetry_equiv_pos_as_xyz
 1 'x,y,z'
 2 '-x,-y,-z'
 3 '-1/2+x,-1/2-y,-z'
 4 '-1/2-x,-1/2+y,z'
 5 '-x,-1/2+y,-1/2-z'
 6 'x,-1/2-y,-1/2+z'
 7 '-1/2-x,-y,-1/2+z'
 8 '-1/2+x,y,-1/2-z'
loop_
_atom_site_label
_atom_site_type_symbol
_atom_site_fract_x
_atom_site_fract_y
_atom_site_fract_z
C1    C     0.10596463991653 0.64174390955605 0.92090213976040 
C2    C     0.13691945999707 0.62796395015183 0.86359379005919 
C3    C     0.10103696999687 0.56422695052492 0.00232283008217 
C4    C     0.15925370001702 0.50382015971818 0.85769844021772 
C5    C     0.12975832003469 0.50594167043324 0.05562094979620 
C6    C     0.14764914999563 0.36313376966871 0.88082576975546 
C7    C     0.16628840989537 0.56000799036667 0.05781566987776 
C8    C     0.11074008995548 0.31304949986547 0.88080798030594 
C9    C     0.07847717996698 0.73753631036472 0.89450020988143 
C10   C     0.14567207003586 0.74432563961891 0.80846310000880 
C11   C     0.06500742011641 0.54517666030690 0.03269007003464 
C12   C     0.19521479012267 0.52197900008827 0.82657075014089 
C13   C     0.12101248997462 0.39578954990819 0.11546721026737 
C14   C     0.17510255988003 0.26424996998896 0.90341980970948 
C15   C     0.17580507002066 0.69500621961136 0.02576643015311 
C16   C     0.08187509996986 0.37029440025883 0.82649876017523 
C17   C     0.19374879990134 0.48087874957671 0.10201256006815 
C18   C     0.10282650010163 0.19077025956771 0.93150771024002 
C19   C     0.08590611997486 0.84073239022924 0.82860562987293 
C20   C     0.11957054008065 0.85113032022780 0.79260922001882 
C21   C     0.04371220991612 0.72839905973033 0.93389387018418 
C22   C     0.18036662993217 0.75252290995373 0.76867166996295 
C23   C     0.03669164998721 0.62796394951329 0.99633062976522 
C24   C     0.20518582987441 0.64901509024049 0.78311643993514 
C25   C     0.05732406007661 0.44337629037668 0.09908114971017 
C26   C     0.22110171007653 0.41342983002648 0.83907717029306 
C27   C     0.08434367002735 0.36378040006147 0.13442864021073 
C28   C     0.21174652987164 0.29244027990409 0.88203338003003 
C29   C     0.21087336008867 0.74311685024852 0.02858469018173 
C30   C     0.04577101011569 0.32102119994626 0.83954249969028 
C31   C     0.14889701012212 0.32157447952120 0.16078057967955 
C32   C     0.16604544000958 0.13647521050611 0.94695316986473 
C33   C     0.08769247996922 0.46313537030004 0.75438329031763 
C34   C     0.18418208009995 0.35854806032315 0.15135641010975 
C35   C     0.13102294008568 0.10638408970208 0.96674060977076 
C36   C     0.22968907995037 0.53102440985763 0.10222348986901 
C37   C     0.06645500991388 0.14718838017832 0.94468472018647 
C38   C     0.23837892009672 0.65893660040821 0.06481490978536 
C39   C     0.03871805000539 0.21316629996804 0.90280945970147 
C40   C     0.05962018007680 0.51318477971970 0.70309668994439 
C41   C     0.01742701988997 0.37422339011931 0.78659126990394 
C42   C     0.02398282010234 0.47078752951515 0.72032784007734 
H1    H     0.15497253991645 0.76315337982093 0.99948537008073 
H2    H     0.21736635011772 0.84703558007548 0.00304184988601 
H3    H     0.06500197012460 0.91586962975028 0.81089602999641 
H4    H     0.12647516003762 0.93740672971802 0.74860610988555 
H5    H     0.02246425001042 0.79790256981589 0.91016217992078 
H6    H     0.18694732989878 0.84420508019248 0.72885970022565 
H7    H     0.00953980998675 0.61262697994801 0.02152408978123 
H8    H     0.23259861991320 0.65970054954503 0.75846181976375 
H9    H     0.02945458001393 0.42738027950374 0.11917991984586 
H10   H     0.24866900005581 0.43069071019541 0.81678580001912 
H11   H     0.07841489008577 0.27988899052185 0.18099187012228 
H12   H     0.23194925008886 0.21345625026661 0.89788734996424 
H13   H     0.14131139989207 0.23527975009132 0.20412782021300 
H14   H     0.18771987993951 0.06561885970008 0.96608667022752 
H15   H     0.11490394989700 0.49471111957833 0.73760065968971 
H16   H     0.20509047998095 0.30019828998107 0.18608955986422 
H17   H     0.12390340003151 0.01311766031271 0.00468600996551 
H18   H     0.25039057002136 0.46799573019408 0.13437042997051 
H19   H     0.06151771988638 0.05894157958503 0.98900111028562 
H20   H     0.26604779000235 0.69651491980567 0.06559053019873 
H21   H     0.01095504994872 0.18131149027536 0.91433261973759 
H22   H     0.06536661004167 0.58554628010672 0.64898840997751 
H23   H     0.99021629006311 0.33535941014369 0.79818735019389 
H24   H     0.00179619989580 0.51181451004945 0.68099162974372 
