data_stdin
_audit_creation_method 'critic2'
_audit_creation_date 2023-8-11
_chemical_formula_sum 'C42 H24'
_cell_formula_units_Z 8
_cell_length_a        17.4338917972
_cell_length_b         9.9438258446
_cell_length_c        33.9060122861
_cell_angle_alpha        90.0014
_cell_angle_beta       116.3432
_cell_angle_gamma        90.0000
_cell_volume          5267.519661
_space_group_crystal_system monoclinic
_space_group_IT_number 15
_space_group_name_H-M_alt 'C2/c'
_space_group_name_Hall '-C 2yc'
loop_
_symmetry_equiv_pos_site_id
_symmetry_equiv_pos_as_xyz
 1 'x,y,z'
 2 '-1/2-x,-1/2-y,-z'
 3 '-x,y,-1/2-z'
 4 '-1/2+x,-1/2-y,-1/2+z'
 5 '-1/2+x,-1/2+y,z'
 6 '-x,-y,-z'
 7 '-1/2-x,-1/2+y,-1/2-z'
 8 'x,-y,-1/2+z'
loop_
_atom_site_label
_atom_site_type_symbol
_atom_site_fract_x
_atom_site_fract_y
_atom_site_fract_z
C1    C     0.43385325411270 0.24334067803370 0.60541885912109 
C2    C     0.39337362509322 0.32737806930669 0.62550180619064 
C3    C     0.40326339781322 0.11203012076552 0.58651482956134 
C4    C     0.34126905013820 0.27721228965142 0.64554050142751 
C5    C     0.31530812243111 0.06680068349736 0.56900463704224 
C6    C     0.34868827574749 0.14390226626155 0.66400041795954 
C7    C     0.24117518860571 0.15512584591605 0.55350556505233 
C8    C     0.42562678157391 0.06307439066019 0.68128840633794 
C9    C     0.50848134298775 0.29495623163715 0.60372747692332 
C10   C     0.40490846375285 0.46894489472498 0.62509014929792 
C11   C     0.46445996734853 0.02286005270563 0.58330828049591 
C12   C     0.27804002271099 0.36521096919603 0.64684256084345 
C13   C     0.29908766672711 0.92620895442333 0.56234016729171 
C14   C     0.27466225016865 0.09019001139781 0.66600759947212 
C15   C     0.24365671120998 0.29227603246910 0.54272716370296 
C16   C     0.51177901254316 0.11669269183586 0.69751308024139 
C17   C     0.15895784186751 0.09949461897960 0.54368280166715 
C18   C     0.41737697421885 0.92248106109902 0.68601688417774 
C19   C     0.52681716081757 0.43523550726579 0.60988682756403 
C20   C     0.47270793807104 0.52096809335503 0.61689380721787 
C21   C     0.56432007125988 0.20616777695503 0.59591278637743 
C22   C     0.34825547149889 0.55685210257039 0.63266565399118 
C23   C     0.54556300991312 0.07219559520858 0.58917535333414 
C24   C     0.28286785502624 0.50581835458300 0.64007409245409 
C25   C     0.44374164690861 0.88504101285213 0.57261112998023 
C26   C     0.20981746616791 0.31157739498684 0.65421594825790 
C27   C     0.36482305502897 0.83678866237931 0.56478926376626 
C28   C     0.20528214436349 0.17645759421624 0.66026410077355 
C29   C     0.17145722893219 0.37251132434502 0.52721115933896 
C30   C     0.58131544507956 0.02677766259126 0.70578599838746 
C31   C     0.21569592682290 0.87383194654076 0.55126926451888 
C32   C     0.27115164528081 0.95127972884784 0.67501563343475 
C33   C     0.53241871652967 0.25311699970235 0.70963075533322 
C34   C     0.14895354013416 0.95730319207038 0.54461284444245 
C35   C     0.33866843913675 0.86860178720370 0.68212181353957 
C36   C     0.08651795613753 0.18468340918417 0.52949725856013 
C37   C     0.48891232500079 0.83543140374370 0.69629363014531 
C38   C     0.09241612475359 0.31956477596491 0.52165764046685 
C39   C     0.56685727930892 0.88512030536064 0.70331574633798 
C40   C     0.61507392880290 0.30087373218057 0.72452413651334 
C41   C     0.66487000070963 0.07874268080990 0.71947377285200 
C42   C     0.68155334698483 0.21410581729998 0.72793379281558 
H1    H     0.30280343720602 0.33436217066099 0.54497229391773 
H2    H     0.17560682769744 0.47648123368705 0.51825649721871 
H3    H     0.58257466582549 0.47311139447516 0.60688351170410 
H4    H     0.48248892340941 0.62941590576086 0.61827748521201 
H5    H     0.62317856146823 0.24673717808826 0.59687981120513 
H6    H     0.35567974672126 0.66480889541223 0.63033634121651 
H7    H     0.58998192913328 0.00199194313479 0.58557337262722 
H8    H     0.23530949465081 0.57177973410449 0.64259221161397 
H9    H     0.49255045884891 0.81912753853161 0.57137134441795 
H10   H     0.16002508638258 0.37944509438754 0.65323230311389 
H11   H     0.34945439014911 0.73052399392490 0.55786820141605 
H12   H     0.15058220889635 0.13333456935106 0.66317750197219 
H13   H     0.20685922251933 0.76508239237233 0.54830124728856 
H14   H     0.21333596026367 0.91190902041687 0.67557174974235 
H15   H     0.48244052059753 0.32101080530928 0.70803411278485 
H16   H     0.08599921683233 0.91689534581589 0.53727608024873 
H17   H     0.33508115458259 0.76133080641617 0.68753699679315 
H18   H     0.02519433621874 0.14025815601125 0.52357600440342 
H19   H     0.47972120606957 0.72775082379363 0.69838760439702 
H20   H     0.03570527020695 0.38304755423036 0.50944520111247 
H21   H     0.62050145892574 0.81778430767329 0.71006233669583 
H22   H     0.62863516509815 0.40613772534910 0.73400269143342 
H23   H     0.71657590094810 0.00877857317603 0.72459587583457 
H24   H     0.74620219347091 0.25263391020354 0.73884142505041 
