data_stdin
_audit_creation_method 'critic2'
_audit_creation_date 2023-8-11
_chemical_formula_sum 'C42 H24'
_cell_formula_units_Z 4
_cell_length_a        19.6956100135
_cell_length_b        10.0715397906
_cell_length_c        14.2072763448
_cell_angle_alpha        89.9999
_cell_angle_beta        74.8683
_cell_angle_gamma        89.9993
_cell_volume          2720.514960
_space_group_crystal_system monoclinic
_space_group_IT_number 14
_space_group_name_H-M_alt 'P2_1/c'
_space_group_name_Hall '-P 2ybc'
loop_
_symmetry_equiv_pos_site_id
_symmetry_equiv_pos_as_xyz
 1 'x,y,z'
 2 '-x,-y,-z'
 3 '-x,-1/2+y,-1/2-z'
 4 'x,-1/2-y,-1/2+z'
loop_
_atom_site_label
_atom_site_type_symbol
_atom_site_fract_x
_atom_site_fract_y
_atom_site_fract_z
C1    C     0.68326278132417 0.93267695651517 0.47376855239478 
C2    C     0.70511341379522 0.91921167250838 0.56238700701129 
C3    C     0.73039503210915 0.96540687438100 0.38034483160009 
C4    C     0.76708686486487 0.98197130626633 0.57802087873322 
C5    C     0.80465480472713 0.93472837526642 0.35178052481190 
C6    C     0.79816350040959 0.10158423630990 0.52930761783627 
C7    C     0.83703977647706 0.82825026681645 0.39391089465966 
C8    C     0.76028532691622 0.20334543261706 0.49201680502870 
C9    C     0.61123763624859 0.91029349810658 0.47824052993890 
C10   C     0.66455775211155 0.83648211993178 0.63716918927088 
C11   C     0.70051431222820 0.02853413890957 0.31086220217460 
C12   C     0.80031133030860 0.91882145461632 0.64355439934750 
C13   C     0.84789738774074 0.00548825345769 0.27163614505039 
C14   C     0.87175233436218 0.11958322655929 0.51754644605722 
C15   C     0.79856827755077 0.72288160596612 0.44953883608547 
C16   C     0.68569628290256 0.23135069383875 0.52983710582970 
C17   C     0.91209094192257 0.82065710643264 0.37165489919558 
C18   C     0.79978405982692 0.28971253110862 0.41892867787497 
C19   C     0.56830359878270 0.84004373322509 0.55951781768583 
C20   C     0.59603992227577 0.79605152408203 0.63288164491911 
C21   C     0.58364810502588 0.95838732489084 0.40125571332734 
C22   C     0.69407686619968 0.79238584557935 0.71329067191831 
C23   C     0.62609363192796 0.02595397235217 0.32439240626448 
C24   C     0.76208682403843 0.82371015145788 0.71119303406387 
C25   C     0.74524431230776 0.08991386349935 0.22720750872838 
C26   C     0.87150488291965 0.95045683363504 0.63977699447065 
C27   C     0.81671675033991 0.08657953646466 0.21215114880465 
C28   C     0.90737934817093 0.04076928444321 0.57309055537652 
C29   C     0.83112243883865 0.62579656878181 0.49090867952108 
C30   C     0.65249907628614 0.32370806602770 0.47922227952809 
C31   C     0.92258402547284 0.99197010639051 0.24898105040130 
C32   C     0.90917522410889 0.21567928094784 0.45005319436308 
C33   C     0.64495862434407 0.18313975285452 0.62089057862613 
C34   C     0.95373279142031 0.90770206644151 0.30028810874695 
C35   C     0.87455580439878 0.29160645946605 0.39758645738419 
C36   C     0.94422004105711 0.72214712318243 0.41673892190577 
C37   C     0.76483917606941 0.37869718533021 0.36889250499708 
C38   C     0.90454149849440 0.62770084488298 0.47738248549142 
C39   C     0.69343005485333 0.39131433834629 0.39517166361194 
C40   C     0.57491082820604 0.21676035194838 0.65703453866495 
C41   C     0.58023149367828 0.35409369991237 0.51666752424940 
C42   C     0.54148946093084 0.30120647700846 0.60388851710821 
H1    H     0.74220239540054 0.71635927952043 0.45891741331544 
H2    H     0.79972534688713 0.54732123835047 0.53383664820190 
H3    H     0.51414728766594 0.81771102487281 0.55973847457280 
H4    H     0.56575258129822 0.73231333459773 0.69067331505851 
H5    H     0.52789555223683 0.94484014187957 0.40679896252744 
H6    H     0.66329618016446 0.72660432686284 0.76913027730182 
H7    H     0.60453517497112 0.07211467793869 0.26910626082769 
H8    H     0.78752466179182 0.77964660480728 0.76289975655693 
H9    H     0.72136984646494 0.14174285456512 0.17678518029010 
H10   H     0.89735967918292 0.89650560593504 0.68730517899221 
H11   H     0.85069273361725 0.14045089665889 0.15124044606809 
H12   H     0.96342669701095 0.05698670239324 0.56326416822339 
H13   H     0.95466233008568 0.05196659489988 0.19028876453549 
H14   H     0.96592216145555 0.22421224210271 0.43871326581980 
H15   H     0.66974821218973 0.12172917156905 0.66516605539492 
H16   H     0.01077775840534 0.90098186194225 0.28442261805534 
H17   H     0.90308631594926 0.36056855770322 0.34234920810727 
H18   H     0.00139959063966 0.72180514215394 0.40121815226411 
H19   H     0.79676646295094 0.43719889871166 0.30920587991166 
H20   H     0.92964326011041 0.55266027816584 0.51211272162715 
H21   H     0.66744573989364 0.45943701168872 0.35612245920187 
H22   H     0.54598718722616 0.17843465717644 0.72785805229000 
H23   H     0.55613557752159 0.42348609295095 0.47604591934866 
H24   H     0.48611545720970 0.32645348947291 0.63231608497673 
