data_stdin
_audit_creation_method 'critic2'
_audit_creation_date 2023-8-11
_chemical_formula_sum 'C42 H24'
_cell_formula_units_Z 4
_cell_length_a        14.4313959000
_cell_length_b        18.4061759800
_cell_length_c         9.9938064204
_cell_angle_alpha        90.0004
_cell_angle_beta        90.0000
_cell_angle_gamma        90.0000
_cell_volume          2654.622945
_space_group_crystal_system orthorhombic
_space_group_IT_number 33
_space_group_name_H-M_alt 'Pna2_1'
_space_group_name_Hall 'P 2c -2n'
loop_
_symmetry_equiv_pos_site_id
_symmetry_equiv_pos_as_xyz
 1 'x,y,z'
 2 '-x,-y,-1/2+z'
 3 '-1/2-x,-1/2+y,-1/2+z'
 4 '-1/2+x,-1/2-y,z'
loop_
_atom_site_label
_atom_site_type_symbol
_atom_site_fract_x
_atom_site_fract_y
_atom_site_fract_z
C1    C     0.46603604936386 0.17986608332066 0.00764830805747 
C2    C     0.50884349499016 0.18127637461606 0.87707389472387 
C3    C     0.44559107452495 0.24389806226082 0.08602955075363 
C4    C     0.56804493019363 0.23903231548240 0.82962928430090 
C5    C     0.43089361946609 0.31556024552380 0.03112881896469 
C6    C     0.62253776270220 0.28532728878772 0.91557657991617 
C7    C     0.39814940859353 0.32943144764528 0.89633822189214 
C8    C     0.65561326886187 0.26468278573572 0.04646864582978 
C9    C     0.44105991741161 0.11106337464785 0.06133523562284 
C10   C     0.49088314487572 0.12242272187133 0.78889516296579 
C11   C     0.43694196420857 0.23515759422602 0.22709045283525 
C12   C     0.57262856515249 0.25089326940681 0.68928640350683 
C13   C     0.44164407114122 0.37628236270987 0.11741112797649 
C14   C     0.64647577270770 0.35553993333389 0.86631965445104 
C15   C     0.35280755606919 0.27612497056254 0.81773817577108 
C16   C     0.67189090335634 0.19029603496956 0.08798257334902 
C17   C     0.40286140062496 0.40165218798635 0.84400656096641 
C18   C     0.68046846543517 0.32085537440254 0.13696302829601 
C19   C     0.43616845758571 0.04958882406965 0.97494683063211 
C20   C     0.45428072732381 0.05635311758372 0.84108822584739 
C21   C     0.42029328152177 0.10475212981620 0.20021355971845 
C22   C     0.50903202906687 0.13079079981637 0.64942241851824 
C23   C     0.42513392296569 0.16425748164918 0.28191378903200 
C24   C     0.54217730818026 0.19520437389150 0.60035775113033 
C25   C     0.43744335753117 0.29739677754460 0.31164078954245 
C26   C     0.60713045919094 0.31835897369818 0.64009457091765 
C27   C     0.44639377640738 0.36551460846571 0.25836681538358 
C28   C     0.63652922588609 0.37094955775175 0.72725259125023 
C29   C     0.32210829897405 0.29117744085135 0.68970910160491 
C30   C     0.68756423649892 0.17521554605761 0.22646438842883 
C31   C     0.44407824084537 0.44798544729521 0.06286737819637 
C32   C     0.68073055987635 0.40905689471937 0.95654643342793 
C33   C     0.68190923306728 0.13216068443554 0.99615374745452 
C34   C     0.43035353103454 0.45993147533962 0.92948682622029 
C35   C     0.69115378896499 0.39328555004758 0.08950426026428 
C36   C     0.37385518625819 0.41518091151117 0.71096592092962 
C37   C     0.69766689733867 0.30400978822911 0.27412704925930 
C38   C     0.33519337974087 0.36073683403868 0.63394064640478 
C39   C     0.69648691363556 0.23393672692820 0.31879600233250 
C40   C     0.69770837628336 0.06198601814627 0.03931510127890 
C41   C     0.70041774950954 0.10249331443826 0.26859803221457 
C42   C     0.70447386163516 0.04648216528424 0.17690640200801 
H1    H     0.33929582324962 0.22290695211448 0.86016511360349 
H2    H     0.28665603459580 0.24889713406967 0.63328909865895 
H3    H     0.41306322729078 0.99795258659985 0.01647225721499 
H4    H     0.44370624846219 0.01075532021368 0.77353039569812 
H5    H     0.40357298823879 0.05131795350497 0.24055569736232 
H6    H     0.49130505070493 0.08621409306713 0.58241392785555 
H7    H     0.41476877574148 0.15909452461434 0.38942716378078 
H8    H     0.54952101143562 0.20384755594355 0.49315733027333 
H9    H     0.43221136601043 0.28969096280169 0.41942291477045 
H10   H     0.60549086300615 0.32816421255671 0.53260029383489 
H11   H     0.45099213639909 0.41299315530796 0.32316567144209 
H12   H     0.65601108661084 0.42460094408651 0.69095827462743 
H13   H     0.45772133765297 0.49320126586646 0.13039463078925 
H14   H     0.69613939901612 0.46312849347238 0.91818550535004 
H15   H     0.68024682738590 0.14327407129281 0.88958005024089 
H16   H     0.43377594923369 0.51470336248514 0.88829268017588 
H17   H     0.71330265607462 0.43488469315886 0.16008091872654 
H18   H     0.38110659289234 0.46994918627657 0.67097762854820 
H19   H     0.71251973085149 0.34869226316864 0.34239013269069 
H20   H     0.31312807127988 0.37197341158611 0.53182172189285 
H21   H     0.70824575174456 0.22160380899939 0.42399353260246 
H22   H     0.70662437492249 0.01877118324166 0.96600551402460 
H23   H     0.70911021038313 0.09172344836288 0.37515275990771 
H24   H     0.71478578798807 0.99082581664585 0.21042178299003 
