data_stdin
_audit_creation_method 'critic2'
_audit_creation_date 2023-8-11
_chemical_formula_sum 'C42 H24'
_cell_formula_units_Z 4
_cell_length_a        10.5629916533
_cell_length_b        13.7017069200
_cell_length_c        19.0163751165
_cell_angle_alpha        90.0000
_cell_angle_beta        81.3102
_cell_angle_gamma        90.0000
_cell_volume          2720.665701
_space_group_crystal_system monoclinic
_space_group_IT_number 14
_space_group_name_H-M_alt 'P2_1/c'
_space_group_name_Hall '-P 2ybc'
loop_
_symmetry_equiv_pos_site_id
_symmetry_equiv_pos_as_xyz
 1 'x,y,z'
 2 '-x,-y,-z'
 3 '-x,-1/2+y,-1/2-z'
 4 'x,-1/2-y,-1/2+z'
loop_
_atom_site_label
_atom_site_type_symbol
_atom_site_fract_x
_atom_site_fract_y
_atom_site_fract_z
C1    C     0.37288924437931 0.05391010138279 0.68590292266834 
C2    C     0.42339593239251 0.97079014500944 0.71886773724533 
C3    C     0.27625593224886 0.11836090669183 0.72219336265759 
C4    C     0.35504591410106 0.92035186672943 0.77960393879670 
C5    C     0.25857209742032 0.13788678756601 0.79752366423024 
C6    C     0.21727461606758 0.92068224610250 0.79863693670989 
C7    C     0.35872542341927 0.12764744596015 0.84142555066555 
C8    C     0.12687461179003 0.93374683343646 0.74934740746634 
C9    C     0.42037813110171 0.07341921259662 0.61334790454487 
C10   C     0.54701350295417 0.93611638262799 0.68970248330344 
C11   C     0.19511988575293 0.16685999831855 0.68000440170779 
C12   C     0.42845594856819 0.86731734442424 0.82348080758985 
C13   C     0.13884166694580 0.17641813697862 0.82964136103879 
C14   C     0.16732927396020 0.90521625541964 0.87167603160362 
C15   C     0.49075380517605 0.12304646242095 0.81338813353812 
C16   C     0.15302150101918 0.90943106333666 0.67413158345723 
C17   C     0.32510567800145 0.13047170597246 0.91708355105516 
C18   C     0.00033629779319 0.96377832111373 0.77724175000468 
C19   C     0.53784619622197 0.02950661265596 0.58185274528961 
C20   C     0.60291357840024 0.96784607508177 0.62048904669100 
C21   C     0.34767831015269 0.13440928459826 0.57343747240705 
C22   C     0.61286351294209 0.87117519173623 0.73030602568723 
C23   C     0.23246953267957 0.17184798951268 0.60476476540295 
C24   C     0.55878843845729 0.84429951769497 0.79751710447906 
C25   C     0.08018835390370 0.21164151467534 0.71374164812400 
C26   C     0.37095217645005 0.83840167082886 0.89299247397479 
C27   C     0.04910371712870 0.21006678603066 0.78627345311414 
C28   C     0.24727155831448 0.86442056767670 0.91817300299156 
C29   C     0.58250110738393 0.10932448452729 0.85711197376366 
C30   C     0.06252353657233 0.93692223067660 0.62869869204029 
C31   C     0.11006419467670 0.18349663520837 0.90536433021216 
C32   C     0.03758956449456 0.92954935837472 0.89745433971694 
C33   C     0.25714882005074 0.84995331026042 0.64403637550719 
C34   C     0.19767430610415 0.15620071449313 0.94760411448727 
C35   C     0.95907036259975 0.96416971251884 0.85212874372825 
C36   C     0.42017226255041 0.11303137067916 0.96070086258549 
C37   C     0.91305529688691 0.99112021919835 0.73025652935450 
C38   C     0.54675684257196 0.09998415225439 0.93124476513697 
C39   C     0.94527484940576 0.98268281783852 0.65832790188669 
C40   C     0.27706698541854 0.82609758628246 0.57253065109625 
C41   C     0.08533139108120 0.91193236966319 0.55563162444510 
C42   C     0.19206001962555 0.85891665802279 0.52720586365523 
H1    H     0.52065298659511 0.13243522444847 0.75663015453539 
H2    H     0.68328731076207 0.10726971529708 0.83402639238760 
H3    H     0.57664772825060 0.04779983034237 0.52714652132194 
H4    H     0.69576719493735 0.93822933606932 0.59760587901679 
H5    H     0.38195510919041 0.14614579030197 0.51709602379803 
H6    H     0.70868033019571 0.84671652592500 0.70822484962123 
H7    H     0.17028479890199 0.21012665701162 0.57320974879387 
H8    H     0.61255065154088 0.80119000528341 0.83096799356301 
H9    H     0.01646546807564 0.24536692036538 0.68080869725130 
H10   H     0.42931104797029 0.79917777688159 0.92625639007367 
H11   H     0.95814949876746 0.23948528542673 0.81206758714099 
H12   H     0.20555288658882 0.85020466702100 0.97321280382685 
H13   H     0.01593410766748 0.21072899547979 0.92840306611156 
H14   H     0.00394223004857 0.92296157318559 0.95428432758698 
H15   H     0.32170756077929 0.82003577169879 0.67778180208024 
H16   H     0.17421731314696 0.15816230573091 0.00535188705108 
H17   H     0.86161474103810 0.98755679075203 0.87207157695545 
H18   H     0.39204119317668 0.11166548558983 0.01827742466719 
H19   H     0.81909368441018 0.01847266084555 0.75323481260555 
H20   H     0.61847037602181 0.08554363376549 0.96543190570671 
H21   H     0.87906491420351 0.00586199311878 0.62290313194427 
H22   H     0.35837790469380 0.78009249877779 0.55206895389744 
H23   H     0.01381862982963 0.93214753072455 0.52257686894600 
H24   H     0.20848541148708 0.83995519341037 0.47092814896006 
