data_stdin
_audit_creation_method 'critic2'
_audit_creation_date 2023-8-11
_chemical_formula_sum 'C42 H24'
_cell_formula_units_Z 4
_cell_length_a        17.3532682445
_cell_length_b        10.0232747801
_cell_length_c        15.2603651565
_cell_angle_alpha        89.9999
_cell_angle_beta        83.4526
_cell_angle_gamma        89.9998
_cell_volume          2637.023514
_space_group_crystal_system monoclinic
_space_group_IT_number 9
_space_group_name_H-M_alt 'Cc'
_space_group_name_Hall 'C -2yc'
loop_
_symmetry_equiv_pos_site_id
_symmetry_equiv_pos_as_xyz
 1 'x,y,z'
 2 '-1/2+x,-y,-1/2+z'
 3 '-1/2+x,-1/2+y,z'
 4 'x,-1/2-y,-1/2+z'
loop_
_atom_site_label
_atom_site_type_symbol
_atom_site_fract_x
_atom_site_fract_y
_atom_site_fract_z
C1    C     0.00166490823897 0.43492806359113 0.99895182995346 
C2    C     0.01516051214247 0.56454758121682 0.95890171143409 
C3    C     0.06008806837506 0.35684563918705 0.03616651194556 
C4    C     0.08984579045320 0.61061470385145 0.91884301754495 
C5    C     0.12779004688486 0.41143438337288 0.07031134510875 
C6    C     0.15171449454956 0.52408658067692 0.88124309959334 
C7    C     0.13319313508770 0.54669739505935 0.10330237058903 
C8    C     0.14110451780366 0.39160796255507 0.84673638259476 
C9    C     0.92543353781798 0.38142644329438 0.00241584554173 
C10   C     0.95085306477770 0.65262530025482 0.95916760397828 
C11   C     0.04819984703713 0.21621985681704 0.04242820540653 
C12   C     0.10282529517326 0.75077906372269 0.91627859104326 
C13   C     0.19038018830357 0.32372588501795 0.08121283102620 
C14   C     0.22879249340884 0.57562828849610 0.87566690103287 
C15   C     0.06749996989787 0.62827060173082 0.12765084965307 
C16   C     0.07043478237586 0.34430599140063 0.81443338814791 
C17   C     0.20684343553154 0.59671910692478 0.12199019501217 
C18   C     0.20627710567867 0.30454156770586 0.83678702866573 
C19   C     0.86204294875320 0.46728029004235 0.99001689838898 
C20   C     0.87402303580609 0.60086755050387 0.97549734369104 
C21   C     0.91332753506319 0.24257663938646 0.01796435423861 
C22   C     0.96428273218231 0.79147857923265 0.94355309274430 
C23   C     0.97424334031007 0.16138131480960 0.03115190250374 
C24   C     0.03843673455344 0.83976421717319 0.92954691832511 
C25   C     0.10930849350395 0.13120264542695 0.06280501427937 
C26   C     0.17993391773802 0.80080764516841 0.90047351349846 
C27   C     0.17986630196713 0.18316145575444 0.07615954821762 
C28   C     0.24126411256991 0.71474349673866 0.88700842749185 
C29   C     0.07454559432171 0.75566702491951 0.16051016185044 
C30   C     0.06229975128186 0.20527287388777 0.79641314116141 
C31   C     0.26277139726596 0.37604853954051 0.10175709894172 
C32   C     0.29334652321895 0.48855116951366 0.85664517151895 
C33   C     0.01101479614383 0.43036849984364 0.79180414824131 
C34   C     0.27205825466244 0.50904310941776 0.11650623140888 
C35   C     0.28206175714888 0.35546056902629 0.84306114603581 
C36   C     0.21283780558483 0.72907575496858 0.15307037534684 
C37   C     0.19657385918925 0.16684195608672 0.81693978336465 
C38   C     0.14806884059807 0.80870696201021 0.17110829240886 
C39   C     0.12614081596039 0.11725673907070 0.80163965673370 
C40   C     0.94439965307267 0.38161090735934 0.76161446583016 
C41   C     0.99271062225203 0.15719294393882 0.76757827655008 
C42   C     0.93398790608869 0.24337128459906 0.75144021375475 
H1    H     0.01000825343792 0.58901047400362 0.12207680219347 
H2    H     0.02253278336041 0.81476078304969 0.17884737833044 
H3    H     0.80375788570380 0.42522816385952 0.99630486148006 
H4    H     0.82538190859100 0.66861820192909 0.97242623256528 
H5    H     0.85526788324954 0.20228823731248 0.01630355217282 
H6    H     0.91453294676933 0.85841407053607 0.94717420974007 
H7    H     0.96631922396573 0.05399303548412 0.03836127481436 
H8    H     0.04943210350658 0.94652382432434 0.92431173489686 
H9    H     0.09908506945387 0.02405422316699 0.06657664572716 
H10   H     0.18884767791914 0.90826787616076 0.90227382223714 
H11   H     0.22754834491035 0.11802943150835 0.08901782160265 
H12   H     0.30069550972897 0.75152238332245 0.87990357533316 
H13   H     0.31047340464524 0.30656815208109 0.10626233052569 
H14   H     0.35151538580461 0.53013431773367 0.85496263376405 
H15   H     0.01829246383147 0.53736388496620 0.79732045559964 
H16   H     0.32779403894744 0.54851451413676 0.13059680418141 
H17   H     0.33111474998131 0.28725710299920 0.83211991782786 
H18   H     0.26961371892086 0.76578488678653 0.16572806330473 
H19   H     0.24732038710506 0.10215613483506 0.81318217341184 
H20   H     0.15339611684443 0.90924367854669 0.19670204887625 
H21   H     0.11915729955978 0.01215708663375 0.78652474347188 
H22   H     0.89996840365257 0.45121185331114 0.74533045493457 
H23   H     0.98775459148505 0.05050011220762 0.75570053668677 
H24   H     0.88144901917071 0.20511517562987 0.72774539851286 
