data_stdin
_audit_creation_method 'critic2'
_audit_creation_date 2023-8-11
_chemical_formula_sum 'C42 H24'
_cell_formula_units_Z 2
_cell_length_a        10.4793021353
_cell_length_b        13.7292069700
_cell_length_c        10.2334109546
_cell_angle_alpha        90.0000
_cell_angle_beta        65.3463
_cell_angle_gamma        90.0000
_cell_volume          1338.099084
_space_group_crystal_system monoclinic
_space_group_IT_number 4
_space_group_name_H-M_alt 'P2_1'
_space_group_name_Hall 'P 2yb'
loop_
_symmetry_equiv_pos_site_id
_symmetry_equiv_pos_as_xyz
 1 'x,y,z'
 2 '-x,-1/2+y,-z'
loop_
_atom_site_label
_atom_site_type_symbol
_atom_site_fract_x
_atom_site_fract_y
_atom_site_fract_z
C1    C     0.11336472241210 0.00106183034077 0.06531827228360 
C2    C     0.11526337488723 0.94983128970983 0.94143086273243 
C3    C     0.23011448058941 0.00414838577616 0.10556975802806 
C4    C     0.20388874266925 0.86701776730074 0.87725840617576 
C5    C     0.37578967800280 0.99065567584769 0.00734158490568 
C6    C     0.25805573116347 0.80309712732979 0.95404930137266 
C7    C     0.43279515412431 0.01057789230968 0.85402001389451 
C8    C     0.18985272897178 0.78419884467113 0.10647427783257 
C9    C     0.98954194264544 0.05362016785334 0.15075220914630 
C10   C     0.02734868070114 0.98480413778877 0.87706316835369 
C11   C     0.19943610536304 0.02505373497676 0.25218512278822 
C12   C     0.24251589379443 0.84884345938170 0.72893193188334 
C13   C     0.47231800277042 0.96465468292015 0.06618215776473 
C14   C     0.38710578713799 0.75446929428854 0.87240040701739 
C15   C     0.36204640949571 0.06748469001206 0.78918852075002 
C16   C     0.03964305106327 0.79176448463814 0.19145479526163 
C17   C     0.57332189438903 0.98087863332588 0.76423284206048 
C18   C     0.27334663601043 0.74756769820661 0.17479355015996 
C19   C     0.89015517415836 0.07603916467686 0.09334651189413 
C20   C     0.91509444285907 0.04967023733425 0.95573695538485 
C21   C     0.96799866173754 0.08449394681095 0.29136898781019 
C22   C     0.05490110419247 0.95499728951394 0.73420076212062 
C23   C     0.06561523311257 0.06390859241347 0.34394414587187 
C24   C     0.16563361126581 0.89465474733885 0.65923921963147 
C25   C     0.30334905888260 0.00838734219296 0.30547174352542 
C26   C     0.35921275046383 0.78688171318511 0.65233150525867 
C27   C     0.43214945421027 0.97178208870612 0.21714785288506 
C28   C     0.43585666202689 0.74780883250586 0.72012774841822 
C29   C     0.41991395622223 0.08516698006200 0.64278114697403 
C30   C     0.98585999274188 0.78554045026518 0.34469600304487 
C31   C     0.61194416365120 0.93595088039515 0.97356342866841 
C32   C     0.46445708836310 0.71238501852292 0.94411100448061 
C33   C     0.94065880773382 0.79569584522526 0.13042560419008 
C34   C     0.65861257996302 0.93905710645492 0.82770388551457 
C35   C     0.41322502194224 0.71583658601696 0.09076628659366 
C36   C     0.62999950592780 0.99923911021744 0.61453089297008 
C37   C     0.21541199290077 0.73922031420183 0.32775566985242 
C38   C     0.55365621717278 0.04856856341747 0.55341164101912 
C39   C     0.07827270023457 0.76218012487037 0.41038066816829 
C40   C     0.79847664675875 0.80450759669275 0.21533433749268 
C41   C     0.84006403837983 0.79686279124507 0.42940106678304 
C42   C     0.74762046747546 0.80887581758208 0.36617669212668 
H1    H     0.26118627105370 0.09988176169514 0.85547081346124 
H2    H     0.36105625031413 0.12887973827422 0.59810811793446 
H3    H     0.79833913107613 0.11940068174114 0.15785963570511 
H4    H     0.84662189513528 0.07485148557062 0.90682473247576 
H5    H     0.87057173889349 0.12200375927863 0.35719340501328 
H6    H     0.99063045137331 0.98535540954322 0.68351424013683 
H7    H     0.04553466475580 0.08154460796495 0.45464765198037 
H8    H     0.19420030789561 0.87861091697874 0.54637300809407 
H9    H     0.27684407327752 0.02297763690890 0.41848463077907 
H10   H     0.38995201984695 0.77522360345619 0.53781110924679 
H11   H     0.50920927042031 0.95368719913883 0.25917123537510 
H12   H     0.53218605666834 0.70727495225214 0.66030924422830 
H13   H     0.68139032740424 0.91237635415780 0.02223861633872 
H14   H     0.56614005128352 0.67959427891360 0.87996179846775 
H15   H     0.97676286897023 0.78942016757172 0.01478775456158 
H16   H     0.76442178793160 0.91502440368220 0.75808649351370 
H17   H     0.47510935604701 0.68867091308614 0.14590455150327 
H18   H     0.73657156142449 0.97516054191382 0.54798758946200 
H19   H     0.28383741396991 0.71333238275130 0.37652737435005 
H20   H     0.59830449317241 0.06178844752975 0.43793049379251 
H21   H     0.03533989027348 0.75818994937933 0.52723008829623 
H22   H     0.72507312943300 0.80611826888217 0.16513627507778 
H23   H     0.80158176087289 0.79398171811731 0.54615962477521 
H24   H     0.63618630196507 0.81928365121666 0.43264677811249 
