data_stdin
_audit_creation_method 'critic2'
_audit_creation_date 2023-8-11
_chemical_formula_sum 'C42 H24'
_cell_formula_units_Z 4
_cell_length_a        10.9909989326
_cell_length_b        13.6748183100
_cell_length_c        18.8842523183
_cell_angle_alpha        90.0000
_cell_angle_beta        73.2913
_cell_angle_gamma        90.0000
_cell_volume          2718.464775
_space_group_crystal_system monoclinic
_space_group_IT_number 14
_space_group_name_H-M_alt 'P2_1/c'
_space_group_name_Hall '-P 2ybc'
loop_
_symmetry_equiv_pos_site_id
_symmetry_equiv_pos_as_xyz
 1 'x,y,z'
 2 '-x,-y,-z'
 3 '-x,-1/2+y,-1/2-z'
 4 'x,-1/2-y,-1/2+z'
loop_
_atom_site_label
_atom_site_type_symbol
_atom_site_fract_x
_atom_site_fract_y
_atom_site_fract_z
C1    C     0.54557512345713 0.96906568219472 0.76648219649368 
C2    C     0.56737013062731 0.04354303655999 0.81551487406937 
C3    C     0.64191269929433 0.93213579878063 0.70289885385276 
C4    C     0.66659200023316 0.11621441021226 0.79409968332008 
C5    C     0.77660435321991 0.93362776185104 0.69476691588784 
C6    C     0.72099997403342 0.15046828151867 0.71920157565491 
C7    C     0.83162685547015 0.93520579383136 0.75599455264614 
C8    C     0.65733875876552 0.14806049690926 0.66201136488672 
C9    C     0.42077372311531 0.93008511324944 0.78176669571261 
C10   C     0.48576188965055 0.04617597281144 0.88909834706451 
C11   C     0.60057646001383 0.88972882280405 0.64485123569898 
C12   C     0.71250406282052 0.15685325544378 0.85085097363026 
C13   C     0.86137156324230 0.92668041961533 0.62226803859852 
C14   C     0.84527809340310 0.19190890435202 0.70130753700014 
C15   C     0.76428098621405 0.90538797863734 0.82858442391173 
C16   C     0.52045964630095 0.14768620776328 0.67551134194193 
C17   C     0.96331852371454 0.95846823179114 0.74199127367040 
C18   C     0.73310479760703 0.15417275517560 0.58719902500565 
C19   C     0.33389098347067 0.94241142483989 0.85359175300165 
C20   C     0.36917171832993 0.99290640270828 0.90714213978261 
C21   C     0.38449516658939 0.87975279638619 0.72505122948565 
C22   C     0.52329337254875 0.10075239221381 0.94375632317845 
C23   C     0.46982807191399 0.86647861980554 0.65700893005034 
C24   C     0.63856397679614 0.14708135741724 0.92616867499256 
C25   C     0.69045172824291 0.86997399363394 0.57535351655288 
C26   C     0.82996997216660 0.20859526453884 0.83153512339110 
C27   C     0.81533173817635 0.89541266417419 0.56269888181680 
C28   C     0.89838877473859 0.21940907519197 0.75894166499138 
C29   C     0.81986607851776 0.90879859005862 0.88559864658218 
C30   C     0.46884361160570 0.12478139971517 0.61608005610604 
C31   C     0.99330644225825 0.94721005709476 0.61004934313207 
C32   C     0.91408606908153 0.20874173103326 0.62603887934603 
C33   C     0.43462961730075 0.17782812506695 0.74329929395426 
C34   C     0.04165101742495 0.96722483902918 0.66746803579038 
C35   C     0.86218550943252 0.18468408860589 0.57062140157267 
C36   C     0.01623589790445 0.96621525825429 0.80187992029773 
C37   C     0.67866870571826 0.13165006466638 0.52890778869302 
C38   C     0.94513940408962 0.94349434375681 0.87299252294127 
C39   C     0.55225981004925 0.11140439684984 0.54335441044097 
C40   C     0.30489381772757 0.17861160013511 0.75392317728661 
C41   C     0.33542589146036 0.12216325497535 0.62914783725418 
C42   C     0.25427913415036 0.14811316142523 0.69702400629774 
H1    H     0.66859735427259 0.87668530717441 0.83896352853848 
H2    H     0.76678913582330 0.88326546301541 0.94042317350370 
H3    H     0.24165972421805 0.90648160522831 0.86575738605422 
H4    H     0.30763481941776 0.99539824501082 0.96376799579681 
H5    H     0.28708317195787 0.85421255807178 0.73612878661705 
H6    H     0.46237014967941 0.10008786427303 0.00054809427228 
H7    H     0.44056574686017 0.83217135851552 0.61253937444811 
H8    H     0.67195080404278 0.18154042131106 0.96913696660607 
H9    H     0.65698602930833 0.83659452068249 0.53204792663461 
H10   H     0.86623362843669 0.23702748505847 0.87542015590980 
H11   H     0.88252153949712 0.88748941323141 0.50793136056109 
H12   H     0.99106449646509 0.25469602049458 0.74409185882738 
H13   H     0.05447954509647 0.94797540613132 0.55330470948911 
H14   H     0.00930096665818 0.23947863353776 0.61384726642670 
H15   H     0.47162063236553 0.20385171983719 0.78719734172257 
H16   H     0.14186121161935 0.98434032714835 0.65770518577073 
H17   H     0.91663703262646 0.19344987486972 0.51286634073079 
H18   H     0.11530316858410 0.98813895866057 0.79036120028142 
H19   H     0.74080005870978 0.12971669635810 0.47234704691781 
H20   H     0.98720823084709 0.94863182653482 0.91855449299603 
H21   H     0.51251886930714 0.09009536988481 0.49909173340248 
H22   H     0.24210954443198 0.20420406304414 0.80635945398789 
H23   H     0.29791621498101 0.10155208895889 0.58373673605624 
H24   H     0.15199079054314 0.14725834994703 0.70597985542988 
