data_stdin
_audit_creation_method 'critic2'
_audit_creation_date 2023-8-11
_chemical_formula_sum 'C42 H24'
_cell_formula_units_Z 8
_cell_length_a        19.0061438600
_cell_length_b        21.0254001200
_cell_length_c        13.6560072200
_cell_angle_alpha        90.0000
_cell_angle_beta        90.0000
_cell_angle_gamma        90.0000
_cell_volume          5457.101345
_space_group_crystal_system orthorhombic
_space_group_IT_number 60
_space_group_name_H-M_alt 'Pbcn'
_space_group_name_Hall '-P 2n 2ab'
loop_
_symmetry_equiv_pos_site_id
_symmetry_equiv_pos_as_xyz
 1 'x,y,z'
 2 '-x,-y,-z'
 3 '-1/2-x,-1/2-y,-1/2+z'
 4 '-1/2+x,-1/2+y,-1/2-z'
 5 '-1/2+x,-1/2-y,-z'
 6 '-1/2-x,-1/2+y,z'
 7 '-x,y,-1/2-z'
 8 'x,-y,-1/2+z'
loop_
_atom_site_label
_atom_site_type_symbol
_atom_site_fract_x
_atom_site_fract_y
_atom_site_fract_z
C1    C     0.23880862034664 0.21186396749864 0.44617639653037 
C2    C     0.18031176774930 0.20583983422674 0.51304792210299 
C3    C     0.28656083215984 0.16075284976552 0.42210333623920 
C4    C     0.17694164866674 0.15962088970891 0.59115395747139 
C5    C     0.26943049472718 0.09396487742755 0.42903467029670 
C6    C     0.23775639065495 0.13112180978836 0.63727708616215 
C7    C     0.19865159536825 0.06850017841863 0.42143038171338 
C8    C     0.30651417526052 0.16026449564896 0.64384656989196 
C9    C     0.24977818402834 0.27195127493768 0.40092388581948 
C10   C     0.12262829621108 0.24828725818927 0.50183372193891 
C11   C     0.35489703578433 0.17755941286620 0.38765944891511 
C12   C     0.10912661151692 0.14100191456513 0.62477513515952 
C13   C     0.32571001642383 0.04976637745501 0.43666855903248 
C14   C     0.22835759037195 0.07043926199477 0.68217666797172 
C15   C     0.14220382585099 0.10275477939555 0.37889348910127 
C16   C     0.31897958577172 0.22837695770867 0.64226317378023 
C17   C     0.18601672291519 0.00373306372483 0.44839068134068 
C18   C     0.36513291189401 0.11987233385963 0.66216122386736 
C19   C     0.19412162333143 0.31739169207343 0.39976779529180 
C20   C     0.13091558937616 0.30392000708861 0.44308132844480 
C21   C     0.31586414372034 0.28565990816326 0.35635997691758 
C22   C     0.05724440127915 0.23400938380021 0.54834773894737 
C23   C     0.36831255486120 0.24103965690596 0.35603652147252 
C24   C     0.04945273786875 0.17914196089301 0.60126329380526 
C25   C     0.40895424940520 0.13058782010144 0.38498483856352 
C26   C     0.10188570975255 0.08471779081587 0.68188414789032 
C27   C     0.39580255730116 0.06977942942116 0.41588741182450 
C28   C     0.15928406517436 0.04792760229348 0.70289303209616 
C29   C     0.07574478187272 0.07645937781842 0.37137014954225 
C30   C     0.38964967546463 0.25134199683092 0.63580507757360 
C31   C     0.31136387114027 0.98513794361314 0.46179555851254 
C32   C     0.28797121327771 0.03316891323576 0.70832468465925 
C33   C     0.26533049347832 0.27424867297361 0.65690894144998 
C34   C     0.24404562390870 0.96367930721139 0.47266111276019 
C35   C     0.35439491198770 0.05558859479527 0.69160597294267 
C36   C     0.11680338011242 0.97886690035643 0.44382885596485 
C37   C     0.43489064633471 0.14467969723891 0.65719084207036 
C38   C     0.06199298068113 0.01491438651060 0.40731771944325 
C39   C     0.44695874198518 0.20778996892297 0.64118621336379 
C40   C     0.27956318818253 0.33866994340590 0.65641008947544 
C41   C     0.40258764613159 0.31757749504913 0.63057432188750 
C42   C     0.34849939646530 0.36090638550491 0.63974865951349 
H1    H     0.15175559731670 0.14968052398036 0.34863242472525 
H2    H     0.03411979464421 0.10338125662422 0.33565096749969 
H3    H     0.20194750572281 0.36172957653174 0.36015744777217 
H4    H     0.08666657434507 0.33657025947901 0.43623781259506 
H5    H     0.32421333465063 0.33263945868682 0.32476734543639 
H6    H     0.01271053492728 0.26565238916047 0.53626058649707 
H7    H     0.42009698907180 0.25232962771331 0.32657066127731 
H8    H     0.99805072131299 0.16479715521693 0.62895161628748 
H9    H     0.46142222416620 0.14463386330407 0.36099174993460 
H10   H     0.04954867356142 0.07032985866095 0.70552973159451 
H11   H     0.43806776706470 0.03481800985372 0.42042102421627 
H12   H     0.15345322573464 0.00267701258999 0.74071999893800 
H13   H     0.35568993398072 0.95299497223224 0.47258379398417 
H14   H     0.27943040069203 0.98636606056339 0.74031921471825 
H15   H     0.21210517902577 0.25869237401789 0.67206937958585 
H16   H     0.23379304949372 0.91471456968375 0.49409900015701 
H17   H     0.40017881753274 0.02588825718734 0.70662021366550 
H18   H     0.10815083031579 0.92976354106515 0.46638015007020 
H19   H     0.47870360010352 0.11197590508018 0.66800896478554 
H20   H     0.00902203439730 0.99536072521594 0.40383332288713 
H21   H     0.50034805909499 0.22645981428439 0.63908181312481 
H22   H     0.23705870193664 0.37230315437503 0.66983108174960 
H23   H     0.45671852346219 0.33335921663942 0.62086797502538 
H24   H     0.35910241142734 0.41175080625787 0.63751654686690 
