data_stdin
_audit_creation_method 'critic2'
_audit_creation_date 2023-8-11
_chemical_formula_sum 'C42 H24'
_cell_formula_units_Z 4
_cell_length_a        10.6941492496
_cell_length_b        13.5808220300
_cell_length_c        18.5893824428
_cell_angle_alpha        90.0000
_cell_angle_beta        80.4123
_cell_angle_gamma        90.0000
_cell_volume          2662.123159
_space_group_crystal_system monoclinic
_space_group_IT_number 14
_space_group_name_H-M_alt 'P2_1/c'
_space_group_name_Hall '-P 2ybc'
loop_
_symmetry_equiv_pos_site_id
_symmetry_equiv_pos_as_xyz
 1 'x,y,z'
 2 '-x,-y,-z'
 3 '-x,-1/2+y,-1/2-z'
 4 'x,-1/2-y,-1/2+z'
loop_
_atom_site_label
_atom_site_type_symbol
_atom_site_fract_x
_atom_site_fract_y
_atom_site_fract_z
C1    C     0.42418545547680 0.95016295834790 0.74155600772224 
C2    C     0.42286759921567 0.02480434893652 0.68657521936714 
C3    C     0.31335852831058 0.91934598288578 0.79173018706884 
C4    C     0.32903762268485 0.10197012118008 0.69123616586069 
C5    C     0.18504328518757 0.92815046228544 0.77778176860165 
C6    C     0.25928794028410 0.14056285226839 0.75867410575001 
C7    C     0.15043930841351 0.92729448466736 0.70560139732195 
C8    C     0.30273141385731 0.13871611085866 0.82838258415878 
C9    C     0.54209360366907 0.90474057938380 0.74670360913476 
C10   C     0.51980626373195 0.02253973418612 0.62424466964082 
C11   C     0.33212968731409 0.87668840246774 0.85910847968592 
C12   C     0.30419914754738 0.14252391888016 0.62448012120243 
C13   C     0.08522404228582 0.93067189045327 0.83858600268499 
C14   C     0.13966136919148 0.18562645664170 0.75548405705060 
C15   C     0.22997401083567 0.88771080022303 0.64370513047492 
C16   C     0.43480561648289 0.13436303347514 0.83791237728412 
C17   C     0.02536510182999 0.95720431905145 0.69728830804279 
C18   C     0.21038192479995 0.15007354963590 0.89240511190397 
C19   C     0.64374613464674 0.91101480008784 0.68654213746064 
C20   C     0.62917162715921 0.96260256902371 0.62512649455996 
C21   C     0.55582076972666 0.85279356755377 0.81149557763199 
C22   C     0.50497892611001 0.07919516769201 0.56159546516276 
C23   C     0.45576993318784 0.84469704075725 0.86771846492599 
C24   C     0.39532988418438 0.13046593553615 0.55974865755972 
C25   C     0.22712073163976 0.86799407989379 0.91706560590318 
C26   C     0.18969128048351 0.19572074338094 0.62360431293122 
C27   C     0.10991446827081 0.90208502868845 0.90865728662741 
C28   C     0.10569584395561 0.21011256489981 0.68673197727698 
C29   C     0.19091871895319 0.88376346629264 0.57646078936611 
C30   C     0.46445798323288 0.11544600580759 0.90895061762845 
C31   C     0.96055443497870 0.95856615332447 0.82843950168894 
C32   C     0.05459237898380 0.20690702145559 0.82095432772101 
C33   C     0.53728099905518 0.15756455117408 0.78176881364890 
C34   C     0.93336717800619 0.97719493708951 0.76052654010034 
C35   C     0.08591220893011 0.18318150253665 0.88714335657051 
C36   C     0.99130624077426 0.95869436800499 0.62686623604629 
C37   C     0.24357843810890 0.13149483989825 0.96241701884674 
C38   C     0.07252728370253 0.92267474768722 0.56708429441076 
C39   C     0.36501354858505 0.10957354811772 0.97036187526489 
C40   C     0.66157114145973 0.15579615443161 0.79345178549501 
C41   C     0.59273948896204 0.10956242347366 0.91876831830071 
C42   C     0.69040518728579 0.12894630731152 0.86205521229672 
H1    H     0.32098288099600 0.85622619928816 0.64983677796231 
H2    H     0.25154786206999 0.84891217298268 0.53064709605549 
H3    H     0.73045348242780 0.87006462462369 0.68923933457066 
H4    H     0.70224188468655 0.96127549964434 0.57665496550286 
H5    H     0.64814724199817 0.82195009666154 0.81607220071001 
H6    H     0.57857914304383 0.07522897826023 0.51371010824854 
H7    H     0.46797009623627 0.80882169812016 0.91846498078825 
H8    H     0.37864103181717 0.16663531068793 0.50987190411666 
H9    H     0.24306516423842 0.83757499638040 0.96900997368721 
H10   H     0.16900869369797 0.22126954319627 0.57133396623702 
H11   H     0.03233938446154 0.90398933012191 0.95475135149702 
H12   H     0.01415112321730 0.24480239118641 0.68592775331648 
H13   H     0.88692087126969 0.96508304696656 0.87635462875341 
H14   H     0.96362151827526 0.24074000293238 0.81716798795499 
H15   H     0.51810989407668 0.18050520198487 0.72886416650233 
H16   H     0.83886640736200 0.00098586426251 0.75363892778764 
H17   H     0.01841240001964 0.19508385712298 0.93714385314906 
H18   H     0.89711286297343 0.98507221584550 0.62152770727766 
H19   H     0.16885147686233 0.13476162680436 0.00993186136374 
H20   H     0.04346511798637 0.92065951643236 0.51365086437779 
H21   H     0.38855570406721 0.09317268961185 0.02389271796124 
H22   H     0.73720843607013 0.17654949074656 0.74925976664451 
H23   H     0.61247300350664 0.09137810992388 0.97281584025076 
H24   H     0.78868477895421 0.12628376421236 0.87047837493912 
