data_stdin
_audit_creation_method 'critic2'
_audit_creation_date 2023-8-11
_chemical_formula_sum 'C42 H24'
_cell_formula_units_Z 2
_cell_length_a         7.8582122013
_cell_length_b        16.2274225723
_cell_length_c        10.9173096588
_cell_angle_alpha        82.4173
_cell_angle_beta        73.2794
_cell_angle_gamma        86.8099
_cell_volume          1321.409211
_space_group_crystal_system triclinic
_space_group_IT_number 2
_space_group_name_H-M_alt 'P-1'
_space_group_name_Hall '-P 1'
loop_
_symmetry_equiv_pos_site_id
_symmetry_equiv_pos_as_xyz
 1 'x,y,z'
 2 '-x,-y,-z'
loop_
_atom_site_label
_atom_site_type_symbol
_atom_site_fract_x
_atom_site_fract_y
_atom_site_fract_z
C1    C     0.87399972544765 0.80358803883903 0.77755318660780 
C2    C     0.71323340702761 0.84208486787374 0.75589303243393 
C3    C     0.97330215879268 0.73738641132034 0.70930609886400 
C4    C     0.59835288961336 0.80375079509714 0.69825658079879 
C5    C     0.97985366484727 0.72272089843744 0.58001365267060 
C6    C     0.58467088171889 0.71492328876274 0.69981551344908 
C7    C     0.95023722982166 0.78612009590947 0.48091519625361 
C8    C     0.61795228955560 0.65203283678004 0.79761566922070 
C9    C     0.93834196676154 0.83231644499024 0.87356936630377 
C10   C     0.66568052909894 0.92331862368073 0.79224024215960 
C11   C     0.07788028520276 0.68366338644201 0.77437044842202 
C12   C     0.49286192029524 0.85748255351756 0.63433455330512 
C13   C     0.03625275093393 0.64263734102474 0.54248406476855 
C14   C     0.53009523407918 0.68810560639659 0.59796693020391 
C15   C     0.95133787761401 0.87236324682010 0.48960423047799 
C16   C     0.60768232062828 0.66656306164545 0.92801808789340 
C17   C     0.93567038847601 0.76240205726750 0.36260891662079 
C18   C     0.65063121927836 0.56876859968629 0.76801897845993 
C19   C     0.87157349336023 0.90866632968343 0.92202576977010 
C20   C     0.74772510891258 0.95544074707867 0.87615934828095 
C21   C     0.06725494629346 0.78408214122807 0.92202399052847 
C22   C     0.53779594301893 0.97207486802634 0.74305902164322 
C23   C     0.12296066843462 0.70850825104477 0.88128683579794 
C24   C     0.46495197524439 0.94211431648120 0.65841738402486 
C25   C     0.14323194090406 0.60655799026248 0.72952232595152 
C26   C     0.41570938035275 0.82633962297827 0.54690671814939 
C27   C     0.11216960793905 0.58414740066948 0.62179526537739 
C28   C     0.44609358849122 0.74559812895394 0.52226020990265 
C29   C     0.92489262365952 0.93130799256443 0.39302806457640 
C30   C     0.67925245029590 0.60500166067834 0.00711984177323 
C31   C     0.02540587399344 0.62160445104582 0.42205317085464 
C32   C     0.55264535766412 0.60313231304259 0.57596866934239 
C33   C     0.51672003367666 0.73580139149201 0.98584644902126 
C34   C     0.96885565536560 0.67812430339289 0.33736830027203 
C35   C     0.61989081625936 0.54616411406203 0.65458680848406 
C36   C     0.89931146954455 0.82363927797917 0.26785323444806 
C37   C     0.71358758745871 0.50740479560245 0.85190193257553 
C38   C     0.89234525751033 0.90695492275889 0.28282097862496 
C39   C     0.73901563063853 0.52660208757875 0.96316443488556 
C40   C     0.51073818688730 0.74778971791897 0.11013150284906 
C41   C     0.67832310376242 0.62048850638759 0.13188684451167 
C42   C     0.59779735909025 0.69117223938504 0.18247745789547 
H1    H     0.97596647433672 0.89236760221524 0.57375809896522 
H2    H     0.92929194047133 0.99700910349012 0.40218796597705 
H3    H     0.92635752212513 0.93025748920361 0.99292136195849 
H4    H     0.70628103166011 0.01678524664745 0.90557611568020 
H5    H     0.11426231991684 0.80678433353467 0.99583202144841 
H6    H     0.50575633766953 0.03483703413957 0.76922198736339 
H7    H     0.21117627127984 0.66835731053840 0.92464599169985 
H8    H     0.38004906534283 0.98164120239774 0.61128079392373 
H9    H     0.22017851042742 0.56617669024553 0.78216571072613 
H10   H     0.33735886902483 0.86849881886127 0.49733561591127 
H11   H     0.15695857337586 0.52376971894500 0.58992473121421 
H12   H     0.39465016007608 0.72244930161612 0.45100932426225 
H13   H     0.06365379438349 0.55868597840751 0.39935815023327 
H14   H     0.51582731859037 0.58487045215791 0.49463475062393 
H15   H     0.44791429627265 0.77976249176566 0.93186099857577 
H16   H     0.95783998608757 0.66129149374253 0.24658724009824 
H17   H     0.64215984016776 0.48151936918295 0.63623620406303 
H18   H     0.87968821448122 0.80329303748607 0.18181106866738 
H19   H     0.74231009806120 0.44489311110494 0.82421116826248 
H20   H     0.86596213297233 0.95394004977736 0.20932767189247 
H21   H     0.79525667445056 0.48078144934179 0.02352313792281 
H22   H     0.43790071648745 0.80114861863521 0.15228433671972 
H23   H     0.73861465248487 0.57416509815204 0.18918065239612 
H24   H     0.59908322572521 0.70237776329304 0.27826353818549 
