data_stdin
_audit_creation_method 'critic2'
_audit_creation_date 2023-8-11
_chemical_formula_sum 'C42 H24'
_cell_formula_units_Z 4
_cell_length_a        11.5531981832
_cell_length_b        13.8425133100
_cell_length_c        17.1055026849
_cell_angle_alpha        90.0000
_cell_angle_beta        76.5782
_cell_angle_gamma        90.0000
_cell_volume          2660.887145
_space_group_crystal_system monoclinic
_space_group_IT_number 14
_space_group_name_H-M_alt 'P2_1/c'
_space_group_name_Hall '-P 2ybc'
loop_
_symmetry_equiv_pos_site_id
_symmetry_equiv_pos_as_xyz
 1 'x,y,z'
 2 '-x,-y,-z'
 3 '-x,-1/2+y,-1/2-z'
 4 'x,-1/2-y,-1/2+z'
loop_
_atom_site_label
_atom_site_type_symbol
_atom_site_fract_x
_atom_site_fract_y
_atom_site_fract_z
C1    C     0.78964562725488 0.50193028354851 0.15013758338206 
C2    C     0.81782843419309 0.40014608494148 0.14700745243808 
C3    C     0.76831734116010 0.56073072422803 0.22225818674689 
C4    C     0.78620155578874 0.33543422218011 0.21487597281819 
C5    C     0.81493417982293 0.54231119391907 0.29264715284192 
C6    C     0.68781626608684 0.35033299737888 0.28373495592545 
C7    C     0.92029087938839 0.48497115326083 0.29338311225041 
C8    C     0.58103888390245 0.40512001391213 0.28357299514966 
C9    C     0.78297503275723 0.54753125353242 0.07657653537931 
C10   C     0.88327418529260 0.36159603076197 0.07257990645221 
C11   C     0.69683364675034 0.64497343803715 0.22267308364871 
C12   C     0.85922981485324 0.25235400103337 0.21430682089441 
C13   C     0.75944565967304 0.58966694787009 0.36574617869382 
C14   C     0.69729454296067 0.30619294255469 0.35737556340446 
C15   C     0.00709301573897 0.46028256270037 0.22303834646294 
C16   C     0.53360660914574 0.42204123934501 0.21319825774093 
C17   C     0.94469898750011 0.45777041462437 0.36882827799140 
C18   C     0.51129024313565 0.43816853110719 0.35868772255870 
C19   C     0.83456212794534 0.50184740616667 0.00196898623356 
C20   C     0.89164566235487 0.41509365500414 0.00035939682244 
C21   C     0.72452081331031 0.63838553908623 0.07796795557800 
C22   C     0.94144230994355 0.27059531862473 0.07123669979551 
C23   C     0.67365294836123 0.68119189539802 0.14971360855349 
C24   C     0.93683636898668 0.22120972796227 0.14118048818867 
C25   C     0.65098825760258 0.69555753575195 0.29554489225517 
C26   C     0.85658899291741 0.20206006410120 0.28731310133870 
C27   C     0.67588818824470 0.66518573036223 0.36579133494589 
C28   C     0.78418897606812 0.23338526963149 0.35764526618780 
C29   C     0.10585753905676 0.40534678647102 0.22613789549777 
C30   C     0.43802831672009 0.48945724047314 0.21834533158140 
C31   C     0.78851129042415 0.56315338165193 0.43964545198904 
C32   C     0.61909578164692 0.33405431360499 0.43096654986684 
C33   C     0.56836674159807 0.36763098295773 0.14123204365987 
C34   C     0.87283720611008 0.49488611097947 0.44196192828288 
C35   C     0.53320209099755 0.40211722557664 0.43186256243618 
C36   C     0.04525548681806 0.39995167172433 0.37028214472967 
C37   C     0.41683954868677 0.50573111421734 0.36149851925781 
C38   C     0.12419277658698 0.37284132799540 0.30023870262168 
C39   C     0.38524997706653 0.53456573943730 0.29310239283260 
C40   C     0.51692107878597 0.38265213720355 0.07691741736922 
C41   C     0.38966970211711 0.50572221349306 0.15070046793283 
C42   C     0.42811491029224 0.45335048486294 0.08097865780127 
H1    H     0.99612980804826 0.48570110983588 0.16519977359240 
H2    H     0.17085319289215 0.38715715612782 0.17115854593150 
H3    H     0.83344301037728 0.54030213696201 0.94665680830238 
H4    H     0.94275292343763 0.38459914758126 0.94418588735500 
H5    H     0.71695405997195 0.67042976226691 0.02116594924156 
H6    H     0.99417776294936 0.24410422674460 0.01401740026268 
H7    H     0.61931908222050 0.74603667828719 0.15223636354235 
H8    H     0.98948039681839 0.15614357711277 0.14192157242295 
H9    H     0.59403066828893 0.75788275395678 0.29454845161459 
H10   H     0.91648488775636 0.14100611827456 0.28584090632428 
H11   H     0.63604671226671 0.70128964907822 0.42224690379575 
H12   H     0.78749469570688 0.20037143076773 0.41486971117393 
H13   H     0.74043420538106 0.59830863966622 0.49465477658378 
H14   H     0.63177397097128 0.30230309105265 0.48666445070583 
H15   H     0.63398118300427 0.31066626720989 0.13752573360302 
H16   H     0.89097039565037 0.47189922541203 0.49888861606902 
H17   H     0.47680951124784 0.42670770513359 0.48839717030988 
H18   H     0.06099018141286 0.37950867474944 0.42844992520154 
H19   H     0.37052470610677 0.53375807729780 0.41992145442978 
H20   H     0.20126528627566 0.32877848664520 0.30220110847937 
H21   H     0.31461014187403 0.58730585622422 0.29506376592424 
H22   H     0.54464320237241 0.33945978521115 0.02258891266455 
H23   H     0.31886701092710 0.55891114118034 0.15586694059730 
H24   H     0.38994349400083 0.46606887674908 0.02951265976871 
