data_stdin
_audit_creation_method 'critic2'
_audit_creation_date 2023-8-11
_chemical_formula_sum 'C42 H24'
_cell_formula_units_Z 8
_cell_length_a        17.2378790357
_cell_length_b         9.9851287692
_cell_length_c        35.1144674958
_cell_angle_alpha        90.0013
_cell_angle_beta       119.4391
_cell_angle_gamma        89.9998
_cell_volume          5263.581985
_space_group_crystal_system monoclinic
_space_group_IT_number 15
_space_group_name_H-M_alt 'C2/c'
_space_group_name_Hall '-C 2yc'
loop_
_symmetry_equiv_pos_site_id
_symmetry_equiv_pos_as_xyz
 1 'x,y,z'
 2 '-x,-y,-z'
 3 '-x,y,-1/2-z'
 4 'x,-y,-1/2+z'
 5 '-1/2+x,-1/2+y,z'
 6 '-1/2-x,-1/2-y,-z'
 7 '-1/2-x,-1/2+y,-1/2-z'
 8 '-1/2+x,-1/2-y,-1/2+z'
loop_
_atom_site_label
_atom_site_type_symbol
_atom_site_fract_x
_atom_site_fract_y
_atom_site_fract_z
C1    C     0.06033527434632 0.13775370715963 0.60492267887527 
C2    C     0.06764203622464 0.00843997087875 0.62483139922037 
C3    C     0.11480503808026 0.18203412691216 0.58646685777559 
C4    C     0.14800268715726 0.92914414965234 0.64492765993753 
C5    C     0.15669190024436 0.09468621783730 0.56898788370228 
C6    C     0.23730231631914 0.98300942744114 0.66326975343181 
C7    C     0.12735065499392 0.95927301143275 0.55328445745089 
C8    C     0.26410056651136 0.11638048840654 0.68116827656678 
C9    C     0.99451495060866 0.22716648654237 0.60331481543161 
C10   C     0.99085604301192 0.95613804964401 0.62485045820796 
C11   C     0.12457794149835 0.32313390588975 0.58382943995085 
C12   C     0.13841335080805 0.78821731307170 0.64711821113449 
C13   C     0.22615531165107 0.14857574046620 0.56277180682643 
C14   C     0.30459993968957 0.89452855719833 0.66568726354282 
C15   C     0.04184229074085 0.90946752687393 0.54229167835444 
C16   C     0.21633351853773 0.19937292754655 0.69690194679988 
C17   C     0.18271102978667 0.87514925880512 0.54367617748058 
C18   C     0.34725912097391 0.16602076363270 0.68769376566919 
C19   C     0.92398920556981 0.17695803795170 0.60942395665417 
C20   C     0.91879306519651 0.04339428600348 0.61660032138168 
C21   C     0.00005777618645 0.36620048161216 0.59598672334538 
C22   C     0.98715894334312 0.81744952120040 0.63340669430232 
C23   C     0.06735429392300 0.41346429800073 0.58971789371977 
C24   C     0.05653594625663 0.73443960959232 0.64110615189610 
C25   C     0.18938141380720 0.37433831090469 0.57373339884326 
C26   C     0.21042038053754 0.70185168515503 0.65491316398745 
C27   C     0.24198949854938 0.28913248418259 0.56583704603603 
C28   C     0.28859218854478 0.75397084393396 0.66049073169145 
C29   C     0.01584685898509 0.78070792333263 0.52680619270448 
C30   C     0.24038932248817 0.33737452269702 0.70678361033559 
C31   C     0.27836181874299 0.06289066755416 0.55163421399525 
C32   C     0.38950616101131 0.94536357418702 0.67554179553106 
C33   C     0.15195606663368 0.14850878170515 0.70713976095016 
C34   C     0.26036796476608 0.92925153146066 0.54475509698991 
C35   C     0.40843892742054 0.07861603717042 0.68393949961620 
C36   C     0.15635033451647 0.74168222266615 0.52962818143407 
C37   C     0.37167020096268 0.30274863987376 0.69966972299584 
C38   C     0.07449211618776 0.69424488125347 0.52160533005805 
C39   C     0.31766180356044 0.38762321649799 0.70650761951339 
C40   C     0.10763659649997 0.23092716377037 0.72177100289133 
C41   C     0.19151504932913 0.42088058652391 0.72003182385204 
C42   C     0.12515541801555 0.36941610001065 0.72689766640763 
H1    H     0.99414017896008 0.97543036980051 0.54438994444079 
H2    H     0.94877624269398 0.74733296501346 0.51766058812470 
H3    H     0.87260753889017 0.24624624020906 0.60650776447452 
H4    H     0.86190069455583 0.00253329853309 0.61823949574424 
H5    H     0.95160819779940 0.43382904003210 0.59707679834794 
H6    H     0.92673282862355 0.77836700551259 0.63187467670018 
H7    H     0.07531771742768 0.52038272710157 0.58656574567023 
H8    H     0.05205841444893 0.62674570230047 0.64465774426817 
H9    H     0.19652566408031 0.48256352011184 0.57295340999089 
H10   H     0.20073611657699 0.59413372723302 0.65479095710704 
H11   H     0.29353991188564 0.32762939013917 0.55936371903554 
H12   H     0.34215564092063 0.68867259390972 0.66377411507317 
H13   H     0.33319044327039 0.10725844293823 0.54885941329434 
H14   H     0.43896600435833 0.87625714950976 0.67613743897199 
H15   H     0.13856665724190 0.04181434398782 0.70446462139447 
H16   H     0.30172645393253 0.86355115291951 0.53742564736469 
H17   H     0.47263973377332 0.11856829382023 0.69048216794329 
H18   H     0.20125770357359 0.67832777315256 0.52402780251796 
H19   H     0.43473184707809 0.33760033732408 0.70310138443623 
H20   H     0.05400082184238 0.59271095186547 0.50958413788814 
H21   H     0.33532941664830 0.49259616507691 0.71457699200468 
H22   H     0.05926046681051 0.18765487608101 0.72970968074352 
H23   H     0.20968367591261 0.52621176585493 0.72641997822641 
H24   H     0.08976007204700 0.43417229382531 0.73816524742924 
