data_stdin
_audit_creation_method 'critic2'
_audit_creation_date 2023-8-11
_chemical_formula_sum 'C42 H24'
_cell_formula_units_Z 4
_cell_length_a         7.5741913960
_cell_length_b        16.4967079803
_cell_length_c        20.6731649432
_cell_angle_alpha        89.9995
_cell_angle_beta        88.1603
_cell_angle_gamma        90.0006
_cell_volume          2581.764459
_space_group_crystal_system monoclinic
_space_group_IT_number 14
_space_group_name_H-M_alt 'P2_1/c'
_space_group_name_Hall '-P 2ybc'
loop_
_symmetry_equiv_pos_site_id
_symmetry_equiv_pos_as_xyz
 1 'x,y,z'
 2 '-x,-y,-z'
 3 '-x,-1/2+y,-1/2-z'
 4 'x,-1/2-y,-1/2+z'
loop_
_atom_site_label
_atom_site_type_symbol
_atom_site_fract_x
_atom_site_fract_y
_atom_site_fract_z
C1    C     0.36693604815709 0.25826073156414 0.95958568168936 
C2    C     0.30472659831988 0.33725672481017 0.94083781499003 
C3    C     0.42746978495418 0.19650714028613 0.91450376553734 
C4    C     0.23088129831659 0.35467678303428 0.87883603434607 
C5    C     0.50258253791082 0.21217698318241 0.85065692075139 
C6    C     0.14547125874584 0.29556231298576 0.83866345860775 
C7    C     0.58971202629403 0.28710748939975 0.83149178569104 
C8    C     0.05908718984975 0.22260405713087 0.86220848589642 
C9    C     0.36432797650943 0.23979821964573 0.02678884542375 
C10   C     0.31393400036233 0.40153985529432 0.98646460700197 
C11   C     0.41091969233199 0.11431822350536 0.93504584189383 
C12   C     0.24286512268009 0.43594595016997 0.85613775170202 
C13   C     0.50089060353420 0.14840336270872 0.80452507171380 
C14   C     0.14429461916612 0.31172538019898 0.77087635799698 
C15   C     0.65482570269979 0.34333223534008 0.87657884959580 
C16   C     0.98854717986112 0.21120411090888 0.92774947207833 
C17   C     0.62748193749979 0.30234969037670 0.76435315399019 
C18   C     0.03053798668550 0.15925877313067 0.81706987416113 
C19   C     0.35046334694289 0.30399515585446 0.07280507195849 
C20   C     0.34007648051735 0.38292558242600 0.05285120756805 
C21   C     0.37161780443455 0.15733851899657 0.04689659963484 
C22   C     0.29580128156154 0.48324330709310 0.96503906338141 
C23   C     0.37911897897623 0.09655221409992 0.00187340742719 
C24   C     0.27555129462847 0.49968355540878 0.90078566670268 
C25   C     0.42709531033571 0.05077299147319 0.88862723731816 
C26   C     0.22266504444534 0.45225765956750 0.78916897162392 
C27   C     0.45947162763756 0.06793968276459 0.82462587696460 
C28   C     0.18846115326836 0.39049682372029 0.74724975837538 
C29   C     0.73885770514214 0.41379525367083 0.85668827646737 
C30   C     0.93596452633277 0.13180438321468 0.94856738066830 
C31   C     0.54352533606424 0.16491042899060 0.73802511696357 
C32   C     0.09618160432173 0.24963719077642 0.72707655931673 
C33   C     0.95507066898195 0.27595725236277 0.97151653930339 
C34   C     0.59623752165266 0.24025866890472 0.71809775139298 
C35   C     0.05304921726595 0.17397057999178 0.74942498972958 
C36   C     0.70448400437783 0.37709653362126 0.74520081423165 
C37   C     0.97446410381097 0.08118801908605 0.83931373777641 
C38   C     0.75717473789481 0.43281806137410 0.79047535884590 
C39   C     0.93685591054753 0.06665008111428 0.90320167873438 
C40   C     0.89094819121173 0.26264329739743 0.03396997881161 
C41   C     0.87585736925058 0.11924552363670 0.01331294182126 
C42   C     0.85648212113569 0.18325099404874 0.05589722057832 
H1    H     0.64423520934443 0.32900167501845 0.92775583718667 
H2    H     0.79474088959286 0.45409951685343 0.89234475376901 
H3    H     0.35403761338751 0.28935346013870 0.12408213185342 
H4    H     0.34496355733980 0.43242452598016 0.08755478402328 
H5    H     0.36301503561115 0.14375447295317 0.09851627622399 
H6    H     0.30860871522781 0.53218755595558 0.99988716401300 
H7    H     0.36864539718264 0.03339290684224 0.01668586558576 
H8    H     0.27764722003385 0.56195019442952 0.88316218739967 
H9    H     0.40823780684234 0.98845933520469 0.90486603676416 
H10   H     0.24148192978564 0.51411735420580 0.77187623942113 
H11   H     0.46191760029640 0.01985593208539 0.78853882670828 
H12   H     0.18479672167654 0.40144882274719 0.69530444637177 
H13   H     0.52927544518565 0.11582319738410 0.70327793652848 
H14   H     0.09750490836927 0.26317200757410 0.67547843170167 
H15   H     0.97791603071996 0.33770057376644 0.95538151929933 
H16   H     0.62353948738814 0.25270410281047 0.66701900926025 
H17   H     0.02554923099303 0.12503275672015 0.71577822636229 
H18   H     0.72709557863423 0.38914401384256 0.69376916185461 
H19   H     0.96434270974188 0.03283399633384 0.80383101685879 
H20   H     0.81851119490964 0.48955873885331 0.77511113659922 
H21   H     0.89908047176837 0.00628570726795 0.91995599307773 
H22   H     0.86735410479783 0.31408864215419 0.06613252817755 
H23   H     0.84245835775828 0.05781285131814 0.02865153256501 
H24   H     0.81080193980524 0.17272695172903 0.10561208661914 
