data_stdin
_audit_creation_method 'critic2'
_audit_creation_date 2023-8-11
_chemical_formula_sum 'C42 H24'
_cell_formula_units_Z 2
_cell_length_a        10.0161985054
_cell_length_b        13.5179482500
_cell_length_c        10.7102544819
_cell_angle_alpha        90.0000
_cell_angle_beta        63.4136
_cell_angle_gamma        90.0000
_cell_volume          1296.813877
_space_group_crystal_system monoclinic
_space_group_IT_number 4
_space_group_name_H-M_alt 'P2_1'
_space_group_name_Hall 'P 2yb'
loop_
_symmetry_equiv_pos_site_id
_symmetry_equiv_pos_as_xyz
 1 'x,y,z'
 2 '-x,-1/2+y,-z'
loop_
_atom_site_label
_atom_site_type_symbol
_atom_site_fract_x
_atom_site_fract_y
_atom_site_fract_z
C1    C     0.97952304293836 0.99863289348731 0.57402290344754 
C2    C     0.86202301822594 0.06990851117906 0.64335769479427 
C3    C     0.08532282188762 0.96832549010737 0.62399038957670 
C4    C     0.86851215810744 0.14794108801051 0.73248017150910 
C5    C     0.05854795975451 0.97384065426868 0.76792417959969 
C6    C     0.00545673555641 0.19013531897421 0.72337391103146 
C7    C     0.91148851442838 0.97382193816599 0.88628588883053 
C8    C     0.14609142229900 0.19292727916670 0.59825754116873 
C9    C     0.99037683911474 0.95498443208562 0.44908785558551 
C10   C     0.73204406083599 0.06258905185503 0.62221889047592 
C11   C     0.22421031525497 0.92852381398766 0.52454638908963 
C12   C     0.73077897583558 0.18595212336554 0.83579930482159 
C13   C     0.18375529489670 0.97274026882060 0.79704755241749 
C14   C     0.99896026214384 0.23484505741038 0.84673653468799 
C15   C     0.78237153265701 0.93736006694082 0.87912524054583 
C16   C     0.16106749328721 0.18906287993158 0.45701304778238 
C17   C     0.89683832445795 0.00365495120527 0.01991639721508 
C18   C     0.27847380073930 0.20923096413503 0.61340663588898 
C19   C     0.86527171630347 0.95853826380541 0.41922190256523 
C20   C     0.73603398470919 0.00446346490812 0.50933946310475 
C21   C     0.12515289069304 0.90700661973845 0.35672177248201 
C22   C     0.59965069536859 0.11315488337568 0.71480131291911 
C23   C     0.24179640578530 0.89998509416333 0.38994222990275 
C24   C     0.59670909393840 0.16716776472400 0.82415581757248 
C25   C     0.34307367364966 0.91603327209509 0.56162766988032 
C26   C     0.72876778233284 0.24172937831692 0.94959299258737 
C27   C     0.32601047630188 0.94308095560331 0.69112808200905 
C28   C     0.85809825392642 0.25783731609874 0.96030687628544 
C29   C     0.64390134658967 0.93994855537842 0.99417473327158 
C30   C     0.30565865714915 0.17403651049151 0.34309269197903 
C31   C     0.16527545791655 0.99895065163369 0.93316675655691 
C32   C     0.13304924309959 0.26004267915351 0.85427504362652 
C33   C     0.04198751554093 0.20919678154600 0.42348771445222 
C34   C     0.02754756100626 0.02003729468293 0.03858070065354 
C35   C     0.26870398812029 0.24174984019406 0.74370456838849 
C36   C     0.75304716944778 0.00967278859297 0.13441600249937 
C37   C     0.42156274093116 0.19748847762824 0.49639076318125 
C38   C     0.62783265201104 0.97974641190767 0.12178751235592 
C39   C     0.43474530505343 0.17516180060786 0.36712020648099 
C40   C     0.06126959679618 0.20606398891009 0.28744119367464 
C41   C     0.32094707334988 0.16551138110751 0.20554621625165 
C42   C     0.20083983286269 0.18062823378017 0.17746703726112 
H1    H     0.79297683473564 0.90468801306250 0.78253663851850 
H2    H     0.54673440584640 0.91107998506082 0.98565362271167 
H3    H     0.87225857188216 0.91952112739917 0.32752121662012 
H4    H     0.63606996885936 0.00094524749299 0.49341107658748 
H5    H     0.13449313093966 0.87804365165788 0.25832214305195 
H6    H     0.49943702200137 0.10430131194831 0.70042884146300 
H7    H     0.34699265718251 0.86675155087045 0.31694025813042 
H8    H     0.49301457714018 0.20012415357492 0.90072825000702 
H9    H     0.44907241106842 0.88667709149690 0.48387169129226 
H10   H     0.62198141290067 0.26759875767206 0.03048031358073 
H11   H     0.41917863263032 0.93761446007922 0.71717217563001 
H12   H     0.85638738535905 0.29371071493429 0.05201263615695 
H13   H     0.26425477674756 0.00264098325077 0.95083747757878 
H14   H     0.12549430677846 0.29363275167991 0.94961993984212 
H15   H     0.93425027913613 0.23081868575051 0.50565636616377 
H16   H     0.01500304101329 0.04334291474053 0.14054092844419 
H17   H     0.37140154429989 0.25788463175922 0.75118709972284 
H18   H     0.74383891350353 0.03593180049918 0.23413707127494 
H19   H     0.52083491600055 0.20672917665327 0.51241261257652 
H20   H     0.51787891939742 0.98480163653489 0.21055719373821 
H21   H     0.54405160938320 0.16436611314028 0.27890797159690 
H22   H     0.96779184898674 0.22444231973809 0.26573747576160 
H23   H     0.43098658031543 0.14865739712005 0.12188378711954 
H24   H     0.21417209686775 0.17588059261894 0.07103465298090 
