data_stdin
_audit_creation_method 'critic2'
_audit_creation_date 2023-8-11
_chemical_formula_sum 'C42 H24'
_cell_formula_units_Z 4
_cell_length_a        14.4134080196
_cell_length_b        16.0971817500
_cell_length_c        11.4658745542
_cell_angle_alpha        89.9999
_cell_angle_beta        81.6072
_cell_angle_gamma        89.9999
_cell_volume          2631.768528
_space_group_crystal_system monoclinic
_space_group_IT_number 14
_space_group_name_H-M_alt 'P2_1/c'
_space_group_name_Hall '-P 2ybc'
loop_
_symmetry_equiv_pos_site_id
_symmetry_equiv_pos_as_xyz
 1 'x,y,z'
 2 '-x,-y,-z'
 3 '-x,-1/2+y,-1/2-z'
 4 'x,-1/2-y,-1/2+z'
loop_
_atom_site_label
_atom_site_type_symbol
_atom_site_fract_x
_atom_site_fract_y
_atom_site_fract_z
C1    C     0.27844848324060 0.91311678068320 0.36086766498675 
C2    C     0.25613188538487 0.85973170501586 0.26778177150121 
C3    C     0.23956625924520 0.99522440118552 0.38510815592952 
C4    C     0.22304175756378 0.88928330938185 0.16234426722447 
C5    C     0.15013471099652 0.02403918390943 0.35721787448251 
C6    C     0.24151684440815 0.97131345393042 0.11323045914853 
C7    C     0.07037094954208 0.97088017066962 0.34637793199014 
C8    C     0.32114206555935 0.02227615459154 0.12959505970337 
C9    C     0.34361864062964 0.88255413740825 0.43267010599776 
C10   C     0.26655932145722 0.77252951524751 0.28139944195578 
C11   C     0.29394083629178 0.05194985664932 0.44265933396653 
C12   C     0.16801120962002 0.83396385420824 0.10412882942623 
C13   C     0.13687692402174 0.11127626221942 0.34862373386899 
C14   C     0.17642960645311 0.00382762484990 0.04261838353933 
C15   C     0.06304721143915 0.88765742944841 0.38673363611137 
C16   C     0.41118894966586 0.98987715004575 0.15030950435758 
C17   C     0.99063307695917 0.00506892044553 0.30219654134891 
C18   C     0.31298525561058 0.10951737751538 0.11548295036205 
C19   C     0.36434566829094 0.79601665670244 0.43298125961889 
C20   C     0.32051492090581 0.74193978804826 0.36688594102313 
C21   C     0.38628759095431 0.93861461505778 0.50475926991124 
C22   C     0.22246998318607 0.71721724423376 0.20947842696513 
C23   C     0.36715613355809 0.02175728474220 0.50231710022128 
C24   C     0.16867637113330 0.74752108565453 0.13020225683931 
C25   C     0.27484497999666 0.13855547229670 0.44008831359872 
C26   C     0.11369831989813 0.86577174088989 0.01989420607477 
C27   C     0.20255638092184 0.16753876392646 0.38656083508855 
C28   C     0.11263743231005 0.94917550521043 0.99703337242464 
C29   C     0.98580082072515 0.83913691286629 0.37545904726178 
C30   C     0.47967423375586 0.04583389505980 0.18416045650522 
C31   C     0.05643689242773 0.14320404656567 0.30466285992233 
C32   C     0.17542162154552 0.09067672288792 0.01902625955560 
C33   C     0.43861880165247 0.90619137333510 0.12811354049346 
C34   C     0.98791372807674 0.09159638800427 0.27688402634593 
C35   C     0.23713682157392 0.14247160103674 0.06313774390282 
C36   C     0.91260436641178 0.95391373783843 0.29024982390737 
C37   C     0.38225647064135 0.16359245175651 0.15105057353489 
C38   C     0.91052662830887 0.87165825290155 0.32423587265972 
C39   C     0.46052353083355 0.13287741629511 0.18991112871370 
C40   C     0.52571652097211 0.87765412780775 0.14660971275850 
C41   C     0.56777967017648 0.01473365947079 0.20451809838853 
C42   C     0.59052537521268 0.93186524290882 0.18756064609617 
H1    H     0.11898111441308 0.86189736180863 0.42925028423882 
H2    H     0.98216234531527 0.77560057378225 0.40841693899003 
H3    H     0.41155114996285 0.77342324744852 0.49198922636531 
H4    H     0.32774831235282 0.67507838699483 0.37675393360883 
H5    H     0.43719034890206 0.91484686652093 0.55785439317084 
H6    H     0.23006489975266 0.65054224731396 0.22155716078477 
H7    H     0.40492941120213 0.06552685463552 0.55055394152991 
H8    H     0.12874375783750 0.70564050776679 0.08213069329752 
H9    H     0.32150711327088 0.18094840436596 0.47764003303780 
H10   H     0.07064189930280 0.82288685455521 0.97747310548581 
H11   H     0.19098499258024 0.23398500744582 0.37739945881976 
H12   H     0.06558405471726 0.97487125572368 0.94022459064700 
H13   H     0.05065449759330 0.21018380591626 0.29384627461753 
H14   H     0.12212107593064 0.11483128590128 0.96963786755329 
H15   H     0.39088186679052 0.86400228124589 0.09298980117472 
H16   H     0.92784029928211 0.11648333942356 0.24101645429070 
H17   H     0.23182518661187 0.20954793528198 0.05396399726690 
H18   H     0.85273746996532 0.98152521904099 0.25659119612171 
H19   H     0.37098299564265 0.23048330836149 0.14739769843295 
H20   H     0.84963993170247 0.83319380341923 0.31612343541270 
H21   H     0.51186413577907 0.17483320530587 0.21890496858130 
H22   H     0.54508364398151 0.81320175218120 0.12704535497744 
H23   H     0.61874066599492 0.05793049165326 0.23161177740129 
H24   H     0.65938471504472 0.90932634586785 0.20117607978872 
