data_stdin
_audit_creation_method 'critic2'
_audit_creation_date 2023-8-11
_chemical_formula_sum 'C42 H24'
_cell_formula_units_Z 2
_cell_length_a         9.7363479829
_cell_length_b        13.2880941612
_cell_length_c        11.3033527438
_cell_angle_alpha        74.9027
_cell_angle_beta        70.7210
_cell_angle_gamma        90.2627
_cell_volume          1326.147793
_space_group_crystal_system triclinic
_space_group_IT_number 2
_space_group_name_H-M_alt 'P-1'
_space_group_name_Hall '-P 1'
loop_
_symmetry_equiv_pos_site_id
_symmetry_equiv_pos_as_xyz
 1 'x,y,z'
 2 '-x,-y,-z'
loop_
_atom_site_label
_atom_site_type_symbol
_atom_site_fract_x
_atom_site_fract_y
_atom_site_fract_z
C1    C     0.73626910663792 0.24045140186977 0.91813858149605 
C2    C     0.86763541374290 0.20488562289789 0.84258201901601 
C3    C     0.60584135697990 0.25327123981893 0.88361445127884 
C4    C     0.90779220707802 0.21498303498892 0.70486564389438 
C5    C     0.56255988925850 0.19537364299292 0.80764743045980 
C6    C     0.85830171332610 0.29249573403507 0.61557672521375 
C7    C     0.60551999988565 0.09231017627910 0.79899738766598 
C8    C     0.82007316572324 0.39508953821087 0.62895272390199 
C9    C     0.73567573652244 0.26482977646231 0.03355634528004 
C10   C     0.96381421345948 0.15772839101113 0.90734551822499 
C11   C     0.51216714142286 0.32685565079320 0.93070998235783 
C12   C     0.00160414519878 0.14305015508154 0.65408793819531 
C13   C     0.46130600582867 0.23772387146277 0.74640382127748 
C14   C     0.85019731853915 0.26537378289951 0.50391716762019 
C15   C     0.66003141576161 0.02555286134758 0.88966725681486 
C16   C     0.87352819699318 0.45077119487915 0.70229717872822 
C17   C     0.57706139400409 0.05024445159299 0.70406763996120 
C18   C     0.73362088148156 0.44866895451978 0.55745843549265 
C19   C     0.84370030659622 0.22749411566124 0.08944111887918 
C20   C     0.94818203077369 0.16950095531241 0.03286449743161 
C21   C     0.62837098964500 0.32704596239871 0.09037546779445 
C22   C     0.07382987946743 0.09921256499045 0.84606508276106 
C23   C     0.52743288768642 0.36389412707896 0.03374461829590 
C24   C     0.08366192104276 0.08541955239619 0.72774360440599 
C25   C     0.40179435858087 0.36101309590883 0.87661431516485 
C26   C     0.01162637071029 0.12921698165712 0.53070680348098 
C27   C     0.38402166721558 0.32253009138124 0.78084539435170 
C28   C     0.92743257867425 0.18218345552925 0.46411324790476 
C29   C     0.69605217399291 0.92670138721976 0.88060242436846 
C30   C     0.81345677169417 0.54534478195807 0.72365486635612 
C31   C     0.43372632283107 0.19317022100698 0.65329207793234 
C32   C     0.76772783784671 0.32321366145337 0.43146316591382 
C33   C     0.99122505047022 0.42089195082749 0.74686654831017 
C34   C     0.49590764919073 0.10584199454014 0.62783023312728 
C35   C     0.70361624682730 0.40835487006623 0.46271017869503 
C36   C     0.62048040886989 0.95050186674249 0.69342894210221 
C37   C     0.68103157257194 0.54542422963804 0.57623793382907 
C38   C     0.68091947423172 0.88997680639806 0.77900116641342 
C39   C     0.71471047301288 0.59032675532875 0.66019708957648 
C40   C     0.03378287180738 0.47219195869770 0.82254550734032 
C41   C     0.85821919408334 0.59609564206135 0.80249712182052 
C42   C     0.96360718796644 0.55866116611180 0.85477316848815 
H1    H     0.66789332736736 0.05092973810920 0.97122664820129 
H2    H     0.73180850826901 0.87562917054423 0.95491061617878 
H3    H     0.83849107228524 0.24314907623236 0.18060898697975 
H4    H     0.02348192734013 0.13399577229631 0.08074150524264 
H5    H     0.63197731433602 0.34845290799051 0.17617089508426 
H6    H     0.14522816281546 0.06183876273001 0.89734208298490 
H7    H     0.45234960822642 0.41798919267434 0.07054803714164 
H8    H     0.15918937089143 0.03350653747971 0.68567321208349 
H9    H     0.33473194703732 0.41984980033027 0.91146587458202 
H10   H     0.08188144278442 0.07269887590925 0.49365793877026 
H11   H     0.30482535805606 0.35194379003457 0.73432145786704 
H12   H     0.92436735484284 0.16547087707659 0.37553566334355 
H13   H     0.36084937865990 0.23035318186439 0.60348583556681 
H14   H     0.75564071908081 0.29757449920822 0.35122779054428 
H15   H     0.05110765831698 0.35735710348656 0.71879507513056 
H16   H     0.47707076172874 0.07355556800349 0.55458044524753 
H17   H     0.63698403762142 0.45093981820054 0.40948351168633 
H18   H     0.60046569489908 0.92044389677360 0.61896853207059 
H19   H     0.61241918308291 0.58270482047016 0.52171544644769 
H20   H     0.71112768146664 0.81267164691455 0.77114010093852 
H21   H     0.67185108416400 0.66327413294585 0.67563190504713 
H22   H     0.12416709197780 0.44662600425523 0.85562184986817 
H23   H     0.80952136799316 0.66696992729107 0.81941792114924 
H24   H     0.99665241186069 0.59814010680470 0.91556607357769 
