data_stdin
_audit_creation_method 'critic2'
_audit_creation_date 2023-8-11
_chemical_formula_sum 'C42 H24'
_cell_formula_units_Z 8
_cell_length_a        21.3319342305
_cell_length_b        13.6066117000
_cell_length_c        18.4888406915
_cell_angle_alpha        90.0000
_cell_angle_beta        90.0011
_cell_angle_gamma        90.0000
_cell_volume          5366.484849
_space_group_crystal_system orthorhombic
_space_group_IT_number 61
_space_group_name_H-M_alt 'Pbca'
_space_group_name_Hall '-P 2ac 2ab'
loop_
_symmetry_equiv_pos_site_id
_symmetry_equiv_pos_as_xyz
 1 'x,y,z'
 2 '-x,-y,-z'
 3 '-1/2+x,-1/2-y,-z'
 4 '-1/2-x,-1/2+y,z'
 5 '-x,-1/2+y,-1/2-z'
 6 'x,-1/2-y,-1/2+z'
 7 '-1/2-x,-y,-1/2+z'
 8 '-1/2+x,y,-1/2-z'
loop_
_atom_site_label
_atom_site_type_symbol
_atom_site_fract_x
_atom_site_fract_y
_atom_site_fract_z
C1    C     0.58759019418434 0.88972026926562 0.17557857222647 
C2    C     0.54052611065239 0.96586180456935 0.17591611351478 
C3    C     0.61957610330608 0.85462053798013 0.23944647016540 
C4    C     0.53688298672000 0.04179916678369 0.23019797493792 
C5    C     0.59475617721882 0.85942076391419 0.31222980589884 
C6    C     0.58954882716363 0.07586212215189 0.27229960742520 
C7    C     0.52847897247107 0.86223416632771 0.33042904063079 
C8    C     0.65427443439285 0.06807972300174 0.25000911566882 
C9    C     0.60328906580384 0.84697995793617 0.10775499176618 
C10   C     0.49500903634538 0.96549352512069 0.11980904868239 
C11   C     0.67971642928462 0.81078744506607 0.22930624916538 
C12   C     0.47741246742097 0.08553577935941 0.24284894935056 
C13   C     0.63800459081669 0.85286033016021 0.37056285478423 
C14   C     0.57671889299133 0.12141767437538 0.34010655333728 
C15   C     0.48044795544051 0.83511881648740 0.28143009456661 
C16   C     0.67512781500449 0.06550338435303 0.17534376945334 
C17   C     0.51015909115936 0.88369976232512 0.40318998677053 
C18   C     0.70108411730605 0.07027115142196 0.30453100495956 
C19   C     0.56115584666087 0.85741650877397 0.04832803625815 
C20   C     0.50609797625336 0.90801925763240 0.05648758006222 
C21   C     0.66032161512023 0.79336530565141 0.10067100568713 
C22   C     0.43977105768537 0.02383551225719 0.12747649349902 
C23   C     0.69948150855562 0.78219817694027 0.15872284237276 
C24   C     0.42951160634492 0.07655625173333 0.18947580109325 
C25   C     0.71963906992530 0.79498526452180 0.28982238343448 
C26   C     0.46689463288522 0.13860977059187 0.30807010207601 
C27   C     0.70076136159214 0.82153387768857 0.35772074372733 
C28   C     0.51431882891836 0.15065887730909 0.35718947512250 
C29   C     0.41808194915745 0.83324606101106 0.30164138377458 
C30   C     0.73846350813386 0.03791783457758 0.15980617434850 
C31   C     0.61814450819801 0.87560809108669 0.44240736433891 
C32   C     0.62646353099619 0.13685188611152 0.39033455806451 
C33   C     0.63759707185195 0.09900377990293 0.11701707477205 
C34   C     0.55688965523972 0.89576029945307 0.45769679909965 
C35   C     0.68571522646833 0.10418185673433 0.37530772258231 
C36   C     0.44576528221219 0.88569447008325 0.42179903524476 
C37   C     0.76398118160812 0.04343260615974 0.28722044062413 
C38   C     0.40014441008280 0.86048204144134 0.37216736743586 
C39   C     0.78155071181926 0.02286158478322 0.21786785409395 
C40   C     0.65937923793276 0.09671642864250 0.04658238690982 
C41   C     0.75866833098876 0.03226625712899 0.08694094340645 
C42   C     0.71953986362193 0.05951316341289 0.03089834673733 
H1    H     0.49277605737330 0.81168872535317 0.22732973313180 
H2    H     0.38294019695944 0.80947949394522 0.26265590273607 
H3    H     0.57203280809350 0.82019626439922 0.99768048833649 
H4    H     0.47186128082702 0.91007262564145 0.01289739738999 
H5    H     0.67305675505411 0.76467359525310 0.04771648476313 
H6    H     0.40540468556654 0.02325310210396 0.08386125147710 
H7    H     0.74499539655594 0.74686208706180 0.15264078858026 
H8    H     0.38601328832461 0.11684329566825 0.19783731357144 
H9    H     0.76590486667067 0.76369056728764 0.28067576651286 
H10   H     0.42024071770673 0.16777392711298 0.31860669002931 
H11   H     0.73253982081097 0.81442163303690 0.40357461974157 
H12   H     0.50575553104994 0.18812348962394 0.40826449142063 
H13   H     0.65331356151201 0.87709068053077 0.48508580772598 
H14   H     0.61589637946534 0.17215025965280 0.44177426419376 
H15   H     0.59162252274462 0.12977603256843 0.12821388533418 
H16   H     0.54256096144655 0.91525946192866 0.51237663890875 
H17   H     0.72291157174528 0.10923664190641 0.41557182047425 
H18   H     0.43315778350188 0.90532921368389 0.47699812861979 
H19   H     0.79782854526062 0.03926965049907 0.33119586717936 
H20   H     0.35090127224257 0.85871260186627 0.38770469488565 
H21   H     0.82940831788927 0.00050607557308 0.20559640381267 
H22   H     0.63008935923144 0.12498623740207 0.00303663521493 
H23   H     0.80659422315662 0.00877617962218 0.07615379119815 
H24   H     0.73568591593572 0.05508316617199 0.97509216508590 
