data_stdin
_audit_creation_method 'critic2'
_audit_creation_date 2023-8-11
_chemical_formula_sum 'C42 H24'
_cell_formula_units_Z 4
_cell_length_a        10.0083253901
_cell_length_b         9.0222954208
_cell_length_c        29.8681485200
_cell_angle_alpha        89.9992
_cell_angle_beta        90.0003
_cell_angle_gamma        90.0000
_cell_volume          2697.036116
_space_group_crystal_system orthorhombic
_space_group_IT_number 19
_space_group_name_H-M_alt 'P2_12_12_1'
_space_group_name_Hall 'P 2ac 2ab'
loop_
_symmetry_equiv_pos_site_id
_symmetry_equiv_pos_as_xyz
 1 'x,y,z'
 2 '-1/2-x,-y,-1/2+z'
 3 '-x,-1/2+y,-1/2-z'
 4 '-1/2+x,-1/2-y,-z'
loop_
_atom_site_label
_atom_site_type_symbol
_atom_site_fract_x
_atom_site_fract_y
_atom_site_fract_z
C1    C     0.47350135956040 0.38472941096083 0.61161995932066 
C2    C     0.34471001192282 0.41527796796002 0.59165560600485 
C3    C     0.52171577669313 0.45035974253455 0.65285204021212 
C4    C     0.26608608593590 0.54663451195710 0.60038674835359 
C5    C     0.43924704859141 0.50405813207078 0.68938018606409 
C6    C     0.31961037352800 0.68690691075968 0.61568793984801 
C7    C     0.30531068977872 0.45109342586948 0.69976853580882 
C8    C     0.45320425822208 0.74070267444624 0.60680354215442 
C9    C     0.55894555948170 0.28238091128755 0.58915765941599 
C10   C     0.29079301224804 0.30788983571377 0.56172351036707 
C11   C     0.66335923731745 0.45875383187074 0.65843856371547 
C12   C     0.12535692787358 0.53655222322346 0.59396438517864 
C13   C     0.49836222028712 0.60577381485536 0.71997161180049 
C14   C     0.23204984629306 0.77989222609595 0.64092707274295 
C15   C     0.24747690158825 0.32314713242189 0.68011363960120 
C16   C     0.53489720026143 0.69587192209064 0.56889626451994 
C17   C     0.23053597565577 0.52176044895036 0.73476773967345 
C18   C     0.50416208267723 0.85523657942265 0.63475275778178 
C19   C     0.50628154699186 0.18689563869062 0.55554417759843 
C20   C     0.37426930619522 0.19409402240096 0.54409814980384 
C21   C     0.69743677605811 0.27642459403556 0.59998118174631 
C22   C     0.15306162607583 0.31346427110849 0.54971989679125 
C23   C     0.74947344862283 0.37076478612315 0.63125177424641 
C24   C     0.07101250685672 0.41872230656778 0.56791837658240 
C25   C     0.71942889030076 0.55358539996637 0.69152448172825 
C26   C     0.03942485027109 0.64251163797025 0.61447273589348 
C27   C     0.63826470405315 0.63394094687769 0.71909577643995 
C28   C     0.09168446061992 0.75293282769558 0.64048586268365 
C29   C     0.12054140255378 0.27511698526893 0.69142732935689 
C30   C     0.67158687775035 0.74229147360057 0.56691779233659 
C31   C     0.41967559182835 0.67609808006454 0.75367674164219 
C32   C     0.28497534171192 0.90012616237456 0.66611013511164 
C33   C     0.48344133824588 0.62074010841641 0.53097434257586 
C34   C     0.28935248487178 0.63844233145157 0.76018849231437 
C35   C     0.41864939818878 0.93052871778443 0.66523656165975 
C36   C     0.10079353696706 0.47072213438480 0.74555715319848 
C37   C     0.64101556978914 0.89883135894442 0.63187678785621 
C38   C     0.04494462089391 0.35053717540928 0.72397987204963 
C39   C     0.72370502941341 0.83952325243733 0.60033832051460 
C40   C     0.56196717435589 0.58940787451181 0.49405108026304 
C41   C     0.75175020998444 0.70159667298653 0.52989084467383 
C42   C     0.69810992001655 0.62838023118547 0.49349790773548 
H1    H     0.30441247773667 0.25848421500640 0.65619110489505 
H2    H     0.08014619024500 0.17725989009692 0.67487513594236 
H3    H     0.57210714605850 0.10492064569285 0.54039053653006 
H4    H     0.33137156095599 0.11614621235697 0.52030603545848 
H5    H     0.76092236128570 0.19972942744077 0.58148357247695 
H6    H     0.11393048314934 0.22903886714627 0.52719647397621 
H7    H     0.85669106711174 0.37589808607216 0.63743507960256 
H8    H     0.96377709632978 0.41772041876368 0.56156921131476 
H9    H     0.82777646058716 0.56362460991087 0.69352808058206 
H10   H     0.93187719651435 0.62908525795027 0.61078990407614 
H11   H     0.67971731902246 0.71358278400077 0.74263577438938 
H12   H     0.02660260434521 0.82569612338576 0.65982906621306 
H13   H     0.46682193999145 0.76022776360781 0.77446808752671 
H14   H     0.21787681719984 0.96443254459570 0.68725184627274 
H15   H     0.37822333035174 0.59256005717602 0.52990586238527 
H16   H     0.23132579925712 0.69212667558448 0.78643827279759 
H17   H     0.46119776202005 0.01638559096239 0.68646637198987 
H18   H     0.04577543469702 0.52783937934617 0.77188167305653 
H19   H     0.67709545568781 0.98128253019801 0.65560888291782 
H20   H     0.94522036227432 0.31317118698488 0.73307141043248 
H21   H     0.82849803010013 0.87183592454772 0.59846988829604 
H22   H     0.51725260999208 0.53622855272512 0.46491338979796 
H23   H     0.85622855871776 0.73479201571239 0.52972349439690 
H24   H     0.75925656858388 0.60594418756050 0.46413394671767 
