data_stdin
_audit_creation_method 'critic2'
_audit_creation_date 2023-8-11
_chemical_formula_sum 'C42 H24'
_cell_formula_units_Z 2
_cell_length_a        10.8359633122
_cell_length_b        13.6466500300
_cell_length_c        10.0762808304
_cell_angle_alpha        90.0000
_cell_angle_beta       117.1668
_cell_angle_gamma        90.0000
_cell_volume          1325.647580
_space_group_crystal_system monoclinic
_space_group_IT_number 4
_space_group_name_H-M_alt 'P2_1'
_space_group_name_Hall 'P 2yb'
loop_
_symmetry_equiv_pos_site_id
_symmetry_equiv_pos_as_xyz
 1 'x,y,z'
 2 '-x,-1/2+y,-z'
loop_
_atom_site_label
_atom_site_type_symbol
_atom_site_fract_x
_atom_site_fract_y
_atom_site_fract_z
C1    C     0.93392755817213 0.01122018953440 0.46331323910374 
C2    C     0.84404878683772 0.93554630624643 0.47002197235464 
C3    C     0.92536092672636 0.05149437215823 0.32653464611919 
C4    C     0.77409384903000 0.86428246661098 0.35346124350406 
C5    C     0.80066482784082 0.05502835978642 0.18619642131781 
C6    C     0.82219254747654 0.83315902285251 0.24789106875340 
C7    C     0.66100023645151 0.05041651399632 0.17135152983915 
C8    C     0.96488355724192 0.83655208946539 0.27380230013312 
C9    C     0.03838690206347 0.04825297833734 0.60071752629252 
C10   C     0.82415176099308 0.93013236344695 0.59982487343645 
C11   C     0.04895388813725 0.09266175083377 0.33313956807757 
C12   C     0.65018274701055 0.82182203099536 0.34317136810739 
C13   C     0.81366357466338 0.07137965966857 0.05370153159423 
C14   C     0.72123403358602 0.79409292251816 0.10933046717128 
C15   C     0.62854165125706 0.07424250977269 0.28876134063053 
C16   C     0.08434748816722 0.83489811175885 0.42002530596507 
C17   C     0.54791735646211 0.03015734794204 0.02817422455871 
C18   C     0.99068058087634 0.83461632131192 0.14763950036460 
C19   C     0.02685621774104 0.03232998446340 0.73446073564041 
C20   C     0.91744607800082 0.98055527792997 0.73161662976863 
C21   C     0.15444468485509 0.09870563814418 0.60315856228701 
C22   C     0.71089618407080 0.87455907758893 0.59581127226373 
C23   C     0.16438259972210 0.11231667973831 0.47396518243549 
C24   C     0.62084167276416 0.82827229362004 0.46728118020504 
C25   C     0.05468206055456 0.11795906940324 0.19924783774554 
C26   C     0.55837729763699 0.77185061773063 0.21053965310687 
C27   C     0.94270923970344 0.10312418409160 0.06329533350422 
C28   C     0.58893379876602 0.76471914692690 0.09324824113130 
C29   C     0.49417583200509 0.06765636742459 0.27023125395088 
C30   C     0.21794057317548 0.85903904823370 0.43313770652705 
C31   C     0.69643808382178 0.05789310444628 0.91106987339407 
C32   C     0.75417471820625 0.78290549773015 0.98857056743209 
C33   C     0.07789591054569 0.80302295796802 0.55050670852110 
C34   C     0.57033726550074 0.03107038112218 0.89904878015701 
C35   C     0.88211779141737 0.80932882095777 0.00479383894753 
C36   C     0.41252903149564 0.01881748554585 0.01397424573753 
C37   C     0.12633110184123 0.85529110279775 0.16441495258725 
C38   C     0.38573364706111 0.03605432827205 0.13339143244347 
C39   C     0.23453963484527 0.87282396388016 0.30174353726966 
C40   C     0.19336559775303 0.80417944485546 0.68841518348288 
C41   C     0.33357174974505 0.86359010725766 0.57639067082433 
C42   C     0.32165963411325 0.83792693898255 0.70257142971838 
H1    H     0.71012645739424 0.10071249063866 0.39389531258039 
H2    H     0.47238478862708 0.08722945316093 0.36231296461264 
H3    H     0.10387662332123 0.06565105444898 0.83732114374551 
H4    H     0.90349773559864 0.97329519832576 0.83148078897765 
H5    H     0.23655741345351 0.12346266176804 0.70955873840763 
H6    H     0.69457061530963 0.87355775511454 0.69482678425697 
H7    H     0.25679347400723 0.14493142357121 0.47580779410831 
H8    H     0.52872321473257 0.79133100457729 0.45977098726446 
H9    H     0.15082835614845 0.14831094067670 0.20732180112363 
H10   H     0.46203686723322 0.74180221285778 0.20233842142592 
H11   H     0.94863023655716 0.12017354339620 0.96075789469599 
H12   H     0.51590147473704 0.73110686763926 0.98877447383941 
H13   H     0.71069375902435 0.06843087130054 0.81170270147777 
H14   H     0.67419445875646 0.75476309907705 0.88301083343512 
H15   H     0.98086842841018 0.77489091122683 0.54157558892914 
H16   H     0.48241217511718 0.01758810441910 0.79048622930955 
H17   H     0.90619875055873 0.80596426242489 0.91115663942080 
H18   H     0.32908456397744 0.99894949374928 0.90531206312081 
H19   H     0.14091424423678 0.85797102316318 0.06430372411694 
H20   H     0.28090451281766 0.02841329450476 0.12087074503369 
H21   H     0.33622718445853 0.89280376629616 0.31311830372122 
H22   H     0.18492445403076 0.77790482091604 0.78601971441201 
H23   H     0.43322605395323 0.88639112256824 0.58473878694785 
H24   H     0.41145046463425 0.84152349001714 0.81185137963062 
