data_stdin
_audit_creation_method 'critic2'
_audit_creation_date 2023-8-11
_chemical_formula_sum 'C42 H24'
_cell_formula_units_Z 2
_cell_length_a         9.3978808348
_cell_length_b         9.9483676511
_cell_length_c        14.5359332217
_cell_angle_alpha        89.9991
_cell_angle_beta        82.7096
_cell_angle_gamma        89.9992
_cell_volume          1348.029671
_space_group_crystal_system monoclinic
_space_group_IT_number 4
_space_group_name_H-M_alt 'P2_1'
_space_group_name_Hall 'P 2yb'
loop_
_symmetry_equiv_pos_site_id
_symmetry_equiv_pos_as_xyz
 1 'x,y,z'
 2 '-x,-1/2+y,-z'
loop_
_atom_site_label
_atom_site_type_symbol
_atom_site_fract_x
_atom_site_fract_y
_atom_site_fract_z
C1    C     0.38465960534944 0.99965525814494 0.27023785691513 
C2    C     0.35370434710780 0.12853923747796 0.31386236807293 
C3    C     0.33086954475881 0.95693492380704 0.18610749677080 
C4    C     0.22933008209872 0.20894110325401 0.30232548794006 
C5    C     0.29016849904823 0.04621314925234 0.11536542932300 
C6    C     0.09487906283198 0.15533948956747 0.27996533256541 
C7    C     0.34859342744159 0.18019917619099 0.09725665968974 
C8    C     0.04253957470462 0.02126155377712 0.30302582101539 
C9    C     0.47386736499487 0.90934639962591 0.31295157491437 
C10   C     0.45124135755054 0.17948448437328 0.37246271292237 
C11   C     0.32029108724639 0.81582048086814 0.17117903529475 
C12   C     0.23947582601851 0.35017708300416 0.31514899687307 
C13   C     0.19704369850813 0.99505779880298 0.05390581642005 
C14   C     0.00515605631250 0.24363780115156 0.23562434289882 
C15   C     0.47369430228649 0.22759196974954 0.13208740644428 
C16   C     0.08522370347054 0.94051318287101 0.37827704863579 
C17   C     0.28617568107200 0.26628994880647 0.03433245679595 
C18   C     0.93109516411723 0.96962784041190 0.25538472182994 
C19   C     0.55635765342369 0.95782491889256 0.38173470024109 
C20   C     0.55174108060316 0.09066381099690 0.40623583557724 
C21   C     0.47873105409408 0.77115737735232 0.28703978577444 
C22   C     0.44665565263544 0.31844125788414 0.39682238855906 
C23   C     0.39551699444332 0.72451517726399 0.22320021233659 
C24   C     0.35066759809614 0.40296019679616 0.36296507440668 
C25   C     0.23611528921998 0.76691250762038 0.10355295337725 
C26   C     0.13875664503979 0.43688661736478 0.27974901934960 
C27   C     0.16808658527564 0.85468363861731 0.05139958514838 
C28   C     0.03205341222742 0.38466523094665 0.23467880018519 
C29   C     0.52468146127626 0.35642266990669 0.11406844590312 
C30   C     0.04312465869764 0.80230236078331 0.38580565307363 
C31   C     0.13840023391815 0.08315020316658 0.99083898701381 
C32   C     0.88631676902334 0.19099352430002 0.19558462677983 
C33   C     0.15363258876776 0.99468919901911 0.45151211992737 
C34   C     0.17710606353892 0.21541518871811 0.98392330420744 
C35   C     0.85612341720964 0.05651695282723 0.20036819932013 
C36   C     0.33869224022892 0.39881052737352 0.01861080282763 
C37   C     0.88894739842577 0.83196831676135 0.26596863527343 
C38   C     0.45462214195199 0.44480536114945 0.05895992973280 
C39   C     0.94858913892524 0.74910020349711 0.32536948138092 
C40   C     0.18482951600236 0.91643955645020 0.52491694989550 
C41   C     0.08436257262597 0.72228474757312 0.45854363634299 
C42   C     0.15266898705904 0.77823797068468 0.52793792733156 
H1    H     0.53182510229120 0.16091814416869 0.17311946498876 
H2    H     0.62063061225740 0.38992028149753 0.14223509741957 
H3    H     0.62750134345564 0.88835657954074 0.41151956060289 
H4    H     0.62098115400368 0.12976145566600 0.45452624086735 
H5    H     0.54519764258079 0.70298715620064 0.32199049022093 
H6    H     0.52434575492956 0.35649947838737 0.43994584696517 
H7    H     0.39037397913528 0.61762098567394 0.20790349768905 
H8    H     0.35310780263001 0.51090188172826 0.37546558691343 
H9    H     0.22527922717488 0.65862899762630 0.09573446393876 
H10   H     0.15183722681258 0.54503245711109 0.28636266816416 
H11   H     0.09838584755170 0.81784091629713 0.00256714544918 
H12   H     0.96067138264877 0.45053516762204 0.20183123866287 
H13   H     0.06102404457058 0.04213099497956 0.94841845544589 
H14   H     0.82112127437503 0.25945726479059 0.16005948340773 
H15   H     0.17676058835327 0.10135820646488 0.45228978082016 
H16   H     0.13023681394980 0.28230481692491 0.93667021402600 
H17   H     0.76791334206562 0.01501423498351 0.16749763470001 
H18   H     0.28727347129800 0.46351421142558 0.97209665489480 
H19   H     0.80656379957073 0.79495242853609 0.22594290919760 
H20   H     0.49473943721812 0.54642454956475 0.04572587890447 
H21   H     0.91758837539143 0.64371885587225 0.33238319597235 
H22   H     0.23307745103603 0.96277682712382 0.58141984662012 
H23   H     0.05471351877150 0.61649671303160 0.46133120254951 
H24   H     0.17589512771487 0.71750756316252 0.58641344673708 
