data_stdin
_audit_creation_method 'critic2'
_audit_creation_date 2023-8-11
_chemical_formula_sum 'C42 H24'
_cell_formula_units_Z 2
_cell_length_a         7.1856309550
_cell_length_b        17.0150852777
_cell_length_c        10.9460829983
_cell_angle_alpha        80.0285
_cell_angle_beta        96.7290
_cell_angle_gamma       100.9946
_cell_volume          1288.993076
_space_group_crystal_system triclinic
_space_group_IT_number 2
_space_group_name_H-M_alt 'P-1'
_space_group_name_Hall '-P 1'
loop_
_symmetry_equiv_pos_site_id
_symmetry_equiv_pos_as_xyz
 1 'x,y,z'
 2 '-x,-y,-z'
loop_
_atom_site_label
_atom_site_type_symbol
_atom_site_fract_x
_atom_site_fract_y
_atom_site_fract_z
C1    C     0.89483898388153 0.66982614658236 0.75159246405605 
C2    C     0.78825913387651 0.65278424102670 0.85989507664704 
C3    C     0.98881914126736 0.74958547901711 0.69965181354200 
C4    C     0.69782802584339 0.71112336325241 0.90166122697798 
C5    C     0.05586455604952 0.81587675287737 0.76924456795652 
C6    C     0.63529035730679 0.77995025826433 0.82201827872107 
C7    C     0.10205032854632 0.80618286954527 0.90301860323501 
C8    C     0.58669567937926 0.78525917145966 0.68923883703865 
C9    C     0.90790818247285 0.60328205928297 0.69221806091508 
C10   C     0.77270612332477 0.57378618524146 0.93066105565996 
C11   C     0.01879439145985 0.76288898550133 0.57062994762026 
C12   C     0.67260627644201 0.70028022674456 0.03080062421769 
C13   C     0.08930161454596 0.89582362375654 0.70213812113531 
C14   C     0.61923514232124 0.84742246008500 0.87896311184351 
C15   C     0.13983969556569 0.73253428001148 0.97523133855620 
C16   C     0.51922667054135 0.71608692515452 0.62509543570044 
C17   C     0.12445629920527 0.87513635317830 0.96530015716203 
C18   C     0.59416751660983 0.86355992740860 0.61743383313541 
C19   C     0.86953171428917 0.52288767992974 0.75876409983458 
C20   C     0.81726281514838 0.50940421244077 0.87795686676883 
C21   C     0.95825001509310 0.61817043202156 0.56721395915514 
C22   C     0.71655167188121 0.56037982462327 0.05433079275812 
C23   C     0.99668602878742 0.69565192499824 0.50542223654558 
C24   C     0.68362475417875 0.62363792838067 0.10590997007988 
C25   C     0.07210929834291 0.84329418843182 0.50809532616393 
C26   C     0.63673541370509 0.76612970170102 0.08340520174639 
C27   C     0.09470569505101 0.90791778218344 0.57056616531919 
C28   C     0.62261257583506 0.83898978617869 0.01078550550541 
C29   C     0.17484363905517 0.72467248593646 0.10315939576989 
C30   C     0.51177607672121 0.72726978419812 0.49210563864642 
C31   C     0.11975936656766 0.96390870945490 0.76686577966680 
C32   C     0.60346687260525 0.92334584842251 0.80374456095984 
C33   C     0.44553610070081 0.63808316978755 0.68699539789439 
C34   C     0.12565212681044 0.95377929425312 0.89368855147274 
C35   C     0.60760415140556 0.93248535686483 0.67750621510286 
C36   C     0.15508751931624 0.86507774691761 0.09689096562698 
C37   C     0.58259016654216 0.87276762068184 0.48483428446445 
C38   C     0.17633148149811 0.79067546109371 0.16532411023363 
C39   C     0.55253281531705 0.80718951825948 0.42431362289379 
C40   C     0.38771272716659 0.57297588765369 0.62343486049655 
C41   C     0.45525103964007 0.65927015450679 0.42942129348072 
C42   C     0.39796585331468 0.58287310680551 0.49384503563768 
H1    H     0.14452848024445 0.68175327687264 0.92842682246665 
H2    H     0.20341912151373 0.66724187803717 0.15604777650826 
H3    H     0.89150053622172 0.47291315404909 0.71495984329140 
H4    H     0.80281168173957 0.44918882547949 0.93311708469795 
H5    H     0.95906461740296 0.56666139646231 0.52061479900168 
H6    H     0.71033527660546 0.49995035449259 0.10808589928442 
H7    H     0.02023555003057 0.70706428860750 0.40701158502468 
H8    H     0.65741669965529 0.61581317010197 0.20372439966785 
H9    H     0.08948358679358 0.85242108330925 0.40882274044643 
H10   H     0.62782882863458 0.75786504203214 0.18344570001440 
H11   H     0.12519001709162 0.96961514937137 0.52135436217524 
H12   H     0.60449653961478 0.89062070803256 0.05191726046204 
H13   H     0.13414933832800 0.02439455525392 0.71210154425865 
H14   H     0.59370122478206 0.97427891585898 0.84929038127585 
H15   H     0.43200117155700 0.62986426990984 0.78634312459132 
H16   H     0.14028546265629 0.00571064857919 0.94210691558563 
H17   H     0.61125682027821 0.99180458447125 0.62040093094147 
H18   H     0.16413655606603 0.91774221508639 0.14301064269699 
H19   H     0.60057532917297 0.93385773156935 0.43248767237838 
H20   H     0.20228316914687 0.78385548411162 0.26623957073485 
H21   H     0.54902151453845 0.81535642189230 0.32325272096475 
H22   H     0.33190043640496 0.51371764250671 0.67367098249831 
H23   H     0.45425545159222 0.66858582557077 0.32833082344205 
H24   H     0.35725234607948 0.53097838124004 0.44478642528532 
