data_stdin
_audit_creation_method 'critic2'
_audit_creation_date 2023-8-11
_chemical_formula_sum 'C42 H24'
_cell_formula_units_Z 8
_cell_length_a        17.4499026872
_cell_length_b         9.9409079090
_cell_length_c        36.2302940700
_cell_angle_alpha        89.9924
_cell_angle_beta       122.9782
_cell_angle_gamma        89.9979
_cell_volume          5272.170172
_space_group_crystal_system triclinic
_space_group_IT_number 2
_space_group_name_H-M_alt 'P-1'
_space_group_name_Hall '-P 1'
loop_
_symmetry_equiv_pos_site_id
_symmetry_equiv_pos_as_xyz
 1 'x,y,z'
 2 '-x,-y,-z'
 3 '-1/2+x,-1/2+y,z'
 4 '-1/2-x,-1/2-y,-z'
loop_
_atom_site_label
_atom_site_type_symbol
_atom_site_fract_x
_atom_site_fract_y
_atom_site_fract_z
C1    C     0.04931134780685 0.71969681235422 0.85432524547243 
C2    C     0.95070649997111 0.71973358312997 0.64566972738622 
C3    C     0.14124501624598 0.66922764222441 0.87435607309259 
C4    C     0.85878549271211 0.66924971867684 0.62563888541709 
C5    C     0.02005981940384 0.85309139346039 0.83586363371151 
C6    C     0.97992293628119 0.85311425019940 0.66412900089838 
C7    C     0.22180417401134 0.75300616589245 0.89441600580555 
C8    C     0.77820728446699 0.75302024022686 0.60557677901363 
C9    C     0.06252135318492 0.93381827316554 0.81855561992767 
C10   C     0.93743899039248 0.93379310040583 0.68143409722391 
C11   C     0.22897124267825 0.88450614112077 0.91322864634273 
C12   C     0.77101060145592 0.88454456828343 0.58676179618157 
C13   C     0.11622918639856 0.88002815044887 0.80233408386486 
C14   C     0.88374051340642 0.87996095056831 0.69765601767663 
C15   C     0.17610663335279 0.92979927518226 0.93077612538200 
C16   C     0.82387041417481 0.92988402797867 0.56921583235894 
C17   C     0.98343770769717 0.63186199600359 0.85298824468132 
C18   C     0.01659958940022 0.63193175575686 0.64700501007321 
C19   C     0.15339563060358 0.52760457808558 0.87471348585695 
C20   C     0.84666465385948 0.52762199804792 0.62528139280607 
C21   C     0.94215147605421 0.90699603409816 0.83385538502326 
C22   C     0.05781731919091 0.90705902508043 0.66613461651283 
C23   C     0.29972040557457 0.70113939480263 0.89615931988707 
C24   C     0.70030336056930 0.70111800047382 0.60383317313354 
C25   C     0.04492405501108 0.07447116454668 0.81381507633614 
C26   C     0.95500373154051 0.07445119338630 0.68617006458011 
C27   C     0.29632803682158 0.97364294659850 0.91628069691764 
C28   C     0.70363417766129 0.97365375229419 0.58370684051863 
C29   C     0.11284013351376 0.74344683781411 0.79034900993294 
C30   C     0.88713855698082 0.74336065487214 0.70963816119129 
C31   C     0.13324792221848 0.84140293411940 0.94641912581173 
C32   C     0.86674962769340 0.84152358447185 0.55357645514528 
C33   C     0.16915323513039 0.96986074433951 0.79398490840687 
C34   C     0.83080887884660 0.96976470614758 0.70600913674714 
C35   C     0.17289394332724 0.07046268354111 0.93726564521039 
C36   C     0.82705583066846 0.07055272167025 0.56272356705913 
C37   C     0.00155085569529 0.49113292036970 0.85968946052179 
C38   C     0.99851720326520 0.49120188101104 0.64030559563967 
C39   C     0.08156288923929 0.43987479794766 0.86707853166486 
C40   C     0.91851414016094 0.43991856255628 0.63291571173690 
C41   C     0.90059924974045 0.68567175844014 0.84558215059030 
C42   C     0.09941561964026 0.68578016618677 0.65440308055966 
C43   C     0.23739916396977 0.47529125229189 0.88291510693485 
C44   C     0.76267152943955 0.47527918078589 0.61708090209528 
C45   C     0.88414562475065 0.82086624832276 0.83955457763911 
C46   C     0.11583629510562 0.82097529295503 0.66043050142938 
C47   C     0.30562487082218 0.56076713610037 0.89001737086541 
C48   C     0.69442668219922 0.56073491245418 0.60997538406708 
C49   C     0.92081651564803 0.04599836904379 0.82487533507284 
C50   C     0.07912435228937 0.04605587401653 0.67511559077203 
C51   C     0.37108399566358 0.78986113534591 0.90391964849029 
C52   C     0.62892205395445 0.78981885801581 0.59607333187156 
C53   C     0.97413195773430 0.12855580495532 0.81774565004200 
C54   C     0.02578949778784 0.12857268788693 0.68224451017875 
C55   C     0.36568415874121 0.92401023863907 0.91046662404089 
C56   C     0.63428901603027 0.92397904920558 0.58952236757959 
C57   C     0.16592972599022 0.69543077997314 0.77559574252602 
C58   C     0.83406425055078 0.69531760418691 0.72439731798069 
C59   C     0.07046250134505 0.89688121556387 0.95612125649778 
C60   C     0.92953557842079 0.89703672519104 0.54388026897869 
C61   C     0.09583498499190 0.16142707325598 0.80345620198649 
C62   C     0.90406539755596 0.16137617292953 0.69652128767678 
C63   C     0.29670562180553 0.11163862203394 0.92679280197010 
C64   C     0.70323196846937 0.11166533966481 0.57319403573530 
C65   C     0.15763945244604 0.70440291677231 0.95738992735045 
C66   C     0.84237572568948 0.70453390078301 0.54260565075394 
C67   C     0.15960065354007 0.11158462661007 0.79637187895595 
C68   C     0.84032288354244 0.11149329544991 0.70361466725322 
C69   C     0.23342435271198 0.15992605507854 0.93460659375186 
C70   C     0.76650460557116 0.15999028574405 0.56538049631449 
C71   C     0.22541661446614 0.91769887808639 0.78035714375096 
C72   C     0.77455731590063 0.91757553553485 0.71964111868175 
C73   C     0.11164256439406 0.12273874249369 0.94835826111683 
C74   C     0.88830102530259 0.12286823520034 0.55163353083295 
C75   C     0.22546068170650 0.78219308649609 0.77209729010728 
C76   C     0.77452683710442 0.78206098737286 0.72790053029505 
C77   C     0.05841352191330 0.03908731866857 0.95511227216982 
C78   C     0.94155722473759 0.03924787871523 0.54488827250088 
C79   C     0.11644333111981 0.62399659170159 0.97288101871135 
C80   C     0.88359288820103 0.62415304848886 0.52712142679061 
C81   C     0.02629194250219 0.81145353732836 0.97022758547059 
C82   C     0.97371849535781 0.81163850353521 0.52977479298757 
C83   C     0.04806966407684 0.67662710793505 0.97815511902404 
C84   C     0.95195405219450 0.67681714192016 0.52184533530095 
H1    H     0.06611169738248 0.67559237303195 0.79198301286103 
H2    H     0.93386086651548 0.67549814247979 0.70799948989585 
H3    H     0.16082604031922 0.58999475862563 0.76629535189747 
H4    H     0.83917253727294 0.58986623875150 0.73369206505309 
H5    H     0.94891772961376 0.42525832634669 0.85711323901917 
H6    H     0.05116997925846 0.42535850673617 0.64288434990848 
H7    H     0.09345926825134 0.33185454648744 0.86934917163317 
H8    H     0.90664618794979 0.33189426080125 0.63064440842665 
H9    H     0.85269174852617 0.61788975453054 0.84650432451473 
H10   H     0.14733704231763 0.61803995410595 0.65347424258546 
H11   H     0.24421613728928 0.36679737498035 0.88145348694020 
H12   H     0.75588775263753 0.36677922793259 0.61854772644573 
H13   H     0.82369566880844 0.86416641968126 0.83660299215307 
H14   H     0.17626850972509 0.86431017311128 0.66337592788918 
H15   H     0.36729482709714 0.52258975912818 0.89306295290931 
H16   H     0.63276515553506 0.52252271268175 0.60692852048120 
H17   H     0.86202151887703 0.08554474715922 0.82435308454373 
H18   H     0.13791622315713 0.08561753655240 0.67563977707485 
H19   H     0.42801145879363 0.74911224706960 0.90302843778411 
H20   H     0.57201177827597 0.74903880458685 0.59697102453697 
H21   H     0.95986583135605 0.23588317289955 0.81232040639961 
H22   H     0.04004706376860 0.23589427052030 0.68767346324707 
H23   H     0.41720576365124 0.99412284274491 0.91397871727734 
H24   H     0.58275333206743 0.99407319052389 0.58600988230518 
H25   H     0.08249334031505 0.26915627718958 0.80133825825764 
H26   H     0.91737464976567 0.26911025794574 0.69862390014884 
H27   H     0.34775477764813 0.17767361410346 0.92790149050603 
H28   H     0.65217908717980 0.17769957629071 0.57208573135481 
H29   H     0.21253962525532 0.66265019508709 0.95529519910718 
H30   H     0.78747896873229 0.66277750627823 0.54470051277189 
H31   H     0.19966051933335 0.17881835710084 0.78952779336958 
H32   H     0.80025001203617 0.17870193340045 0.71045742988232 
H33   H     0.23160830027685 0.26630995123859 0.94135453132433 
H34   H     0.76831379404289 0.26637985804088 0.55863127839779 
H35   H     0.26679064256502 0.98760557502576 0.77515574191242 
H36   H     0.73318031696140 0.98747780011564 0.72484232227819 
H37   H     0.10853162623973 0.23153216710407 0.95123067072795 
H38   H     0.89138940750567 0.23166344323834 0.54875462012777 
H39   H     0.26849720864941 0.74361182123287 0.76130032451207 
H40   H     0.73150025617386 0.74345520997558 0.73870030829102 
H41   H     0.01013955870465 0.07932928545051 0.96248361579447 
H42   H     0.98983199524819 0.07951564814205 0.53752164034972 
H43   H     0.13870730158547 0.52015485211612 0.98200828109716 
H44   H     0.86134196898428 0.52031895471376 0.51799261935007 
H45   H     0.97653983880520 0.85566656800627 0.97599433833974 
H46   H     0.02346632706128 0.85586219278488 0.52400706222084 
H47   H     0.01552907799682 0.61300264359643 0.99022964232300 
H48   H     0.98450416872661 0.61321901090581 0.50977066209471 
