data_stdin
_audit_creation_method 'critic2'
_audit_creation_date 2023-8-11
_chemical_formula_sum 'C42 H24'
_cell_formula_units_Z 2
_cell_length_a         8.8040995581
_cell_length_b        16.5916509019
_cell_length_c        11.0655844379
_cell_angle_alpha        69.4103
_cell_angle_beta        72.1589
_cell_angle_gamma        60.3747
_cell_volume          1297.781526
_space_group_crystal_system triclinic
_space_group_IT_number 2
_space_group_name_H-M_alt 'P-1'
_space_group_name_Hall '-P 1'
loop_
_symmetry_equiv_pos_site_id
_symmetry_equiv_pos_as_xyz
 1 'x,y,z'
 2 '-x,-y,-z'
loop_
_atom_site_label
_atom_site_type_symbol
_atom_site_fract_x
_atom_site_fract_y
_atom_site_fract_z
C1    C     0.86668346942080 0.72829464769112 0.21378251574882 
C2    C     0.79635293030709 0.82406557039308 0.22899374565278 
C3    C     0.99119287264960 0.64386098512022 0.29043223488123 
C4    C     0.88461867797176 0.85545884194153 0.28071416525686 
C5    C     0.01840903763414 0.63451520905789 0.41838018115210 
C6    C     0.07414188424003 0.81346273350215 0.27329497836482 
C7    C     0.88514568705462 0.68610279400440 0.51376516003334 
C8    C     0.20214162824053 0.76040679871440 0.17862002057653 
C9    C     0.80800992890860 0.71738658908090 0.11646920545446 
C10   C     0.62809218398603 0.89175851411701 0.19218424151917 
C11   C     0.09430803269774 0.56240687007874 0.23601344397278 
C12   C     0.77688488083663 0.93173928983052 0.34402093881584 
C13   C     0.18196443735982 0.56273120036895 0.45947079934847 
C14   C     0.13913600285266 0.82427670372097 0.36694906980146 
C15   C     0.70191579362086 0.73352112185578 0.50660558566441 
C16   C     0.17123157468867 0.77487091968845 0.04968998158363 
C17   C     0.93508100105269 0.68003332020067 0.62929875971940 
C18   C     0.37281835945702 0.69375896555287 0.21051637528867 
C19   C     0.65588180139215 0.79318922466143 0.06192745335213 
C20   C     0.56028508399671 0.87451252376185 0.10693085563999 
C21   C     0.89993128002133 0.63009710787218 0.07604338189568 
C22   C     0.52967679730755 0.97491506865286 0.24302217736210 
C23   C     0.04556406109038 0.55751115887991 0.12832754727326 
C24   C     0.59654819499061 0.98923124713077 0.32622002084739 
C25   C     0.24576491295904 0.48566937083963 0.28911144942391 
C26   C     0.85067181518594 0.94990610520927 0.42400590409835 
C27   C     0.29622127716554 0.48989130754329 0.39089504345516 
C28   C     0.02368134400102 0.89376636383807 0.44115097459164 
C29   C     0.57660405424939 0.77457132038171 0.60491720252522 
C30   C     0.28850919700132 0.70430503350258 0.97677555871795 
C31   C     0.22893492101200 0.56038687404761 0.57364632853007 
C32   C     0.31829982241111 0.76473383352307 0.38612989816918 
C33   C     0.03888148155275 0.85982505824175 0.98697172427646 
C34   C     0.11269985702583 0.62011067395310 0.65291920552367 
C35   C     0.42743268131788 0.69673415810251 0.31684716845467 
C36   C     0.80500891175894 0.72687901845431 0.72558334011457 
C37   C     0.49002659184695 0.62589390232191 0.13369215562256 
C38   C     0.62778468525019 0.77248138462113 0.71522625037048 
C39   C     0.44475304575146 0.62747567627818 0.02505619374548 
C40   C     0.01215817274967 0.87049247050898 0.86440024991167 
C41   C     0.25307955082795 0.71490048766808 0.85425794464405 
C42   C     0.11537925336479 0.79585881933972 0.79949945733364 
H1    H     0.65873273018475 0.73461868636528 0.42395446661027 
H2    H     0.43631350266587 0.80813982095666 0.59875139886319 
H3    H     0.60988807940706 0.78197451047717 0.99110574004925 
H4    H     0.43413904952543 0.92815584466098 0.07565175267405 
H5    H     0.85453619313875 0.62357397625180 0.00037347762994 
H6    H     0.39783171988550 0.02456763940358 0.21869792863178 
H7    H     0.12340108494369 0.49285400588158 0.09224844851853 
H8    H     0.51582947951241 0.04748211582250 0.37492275518425 
H9    H     0.32149474811058 0.42430014265957 0.24599717427601 
H10   H     0.76451671033833 0.00666798596053 0.47511390472471 
H11   H     0.41799984656955 0.43406710094584 0.42691818396216 
H12   H     0.07743029779301 0.90340825815721 0.50884666199782 
H13   H     0.36064176178493 0.50892628651726 0.59631684971436 
H14   H     0.36427695481613 0.77215809928511 0.46061633817239 
H15   H     0.95909353398842 0.91824238993775 0.03537577234987 
H16   H     0.14896666717088 0.61829807550020 0.73988051199358 
H17   H     0.56189913988755 0.64806204238204 0.33572816509626 
H18   H     0.84836148347993 0.72373417797832 0.81000350327496 
H19   H     0.61611580422123 0.57208475606068 0.16488626307687 
H20   H     0.52744681693004 0.80523789384056 0.79179426929963 
H21   H     0.53121490097961 0.57310049907413 0.97004633893984 
H22   H     0.91223004849350 0.93733685860742 0.81722904584303 
H23   H     0.34051192114057 0.65892532745985 0.80191948243911 
H24   H     0.08908278703250 0.80289408009042 0.70547215978081 
