data_stdin
_audit_creation_method 'critic2'
_audit_creation_date 2023-8-11
_chemical_formula_sum 'C42 H24'
_cell_formula_units_Z 8
_cell_length_a        37.6853134446
_cell_length_b         9.6575198884
_cell_length_c        15.0566756398
_cell_angle_alpha        90.0026
_cell_angle_beta        95.6726
_cell_angle_gamma        90.0106
_cell_volume          5452.991538
_space_group_crystal_system monoclinic
_space_group_IT_number 15
_space_group_name_H-M_alt 'C2/c'
_space_group_name_Hall '-C 2yc'
loop_
_symmetry_equiv_pos_site_id
_symmetry_equiv_pos_as_xyz
 1 'x,y,z'
 2 '-1/2-x,-1/2-y,-z'
 3 '-1/2-x,-1/2+y,-1/2-z'
 4 'x,-y,-1/2+z'
 5 '-1/2+x,-1/2+y,z'
 6 '-x,-y,-z'
 7 '-x,y,-1/2-z'
 8 '-1/2+x,-1/2-y,-1/2+z'
loop_
_atom_site_label
_atom_site_type_symbol
_atom_site_fract_x
_atom_site_fract_y
_atom_site_fract_z
C1    C     0.37068920329128 0.41316724506326 0.90352735710170 
C2    C     0.40243251255288 0.35534666704278 0.87169199097911 
C3    C     0.35290553388260 0.35668329077962 0.97614056786706 
C4    C     0.41259695863840 0.21134995636655 0.87992362672648 
C5    C     0.37011515016775 0.27429214434491 0.04793495860809 
C6    C     0.38796844867921 0.09913124270466 0.89067302084388 
C7    C     0.40801954270200 0.27791088154626 0.07654461412746 
C8    C     0.35026088081584 0.10069428883076 0.86047149577077 
C9    C     0.35591732373819 0.53355045918786 0.85984783948014 
C10   C     0.42475000064538 0.44587756421237 0.82777854861938 
C11   C     0.31582597792783 0.38571065032420 0.97687076177888 
C12   C     0.44934342623361 0.17826179561144 0.87758160027736 
C13   C     0.34838914416898 0.18976616151769 0.09758377543444 
C14   C     0.40228863287036 0.97641106984709 0.93324175072406 
C15   C     0.43053723784896 0.38885586504161 0.05672776665292 
C16   C     0.33401820691702 0.18375966769208 0.78670581140690 
C17   C     0.42323184117386 0.17135406325480 0.13444067001312 
C18   C     0.32796993900967 0.00532035831606 0.90084383518173 
C19   C     0.37721516640454 0.61515228131480 0.80677354260489 
C20   C     0.41165605797356 0.57778534461401 0.79737908774061 
C21   C     0.31985095128564 0.57032032593669 0.86911814734133 
C22   C     0.45997148598141 0.40333910416380 0.81396344927208 
C23   C     0.29964126107222 0.49155008330920 0.92044389837469 
C24   C     0.47275293412547 0.27761568570020 0.84446463520179 
C25   C     0.29529925788677 0.30993315933618 0.03468698808030 
C26   C     0.46234733190552 0.04645525067723 0.90832259055197 
C27   C     0.31071254159861 0.20836781794602 0.08890366051086 
C28   C     0.43979776146737 0.95294652884431 0.94153108047254 
C29   C     0.46669803861974 0.38752040266204 0.08372712596020 
C30   C     0.29592817652152 0.18734546215803 0.76973000363831 
C31   C     0.36430674722331 0.08838379378341 0.15791322005883 
C32   C     0.37907909952737 0.87800562128889 0.96748173339099 
C33   C     0.35377002636499 0.25239622508734 0.72427340689682 
C34   C     0.40044914290183 0.07412890929900 0.17214496101638 
C35   C     0.34304410964922 0.89822209290020 0.95761075974101 
C36   C     0.46047697911392 0.17011198093690 0.15913401265753 
C37   C     0.29015078158951 0.01212771961032 0.88202976324805 
C38   C     0.48215493637606 0.27483700220317 0.13289235433947 
C39   C     0.27445647918851 0.10289835476335 0.82081555336913 
C40   C     0.33735599335994 0.33015418623232 0.65491820314279 
C41   C     0.27971551104550 0.26943495111651 0.69913061375720 
C42   C     0.29994923413273 0.34178169235428 0.64327028513178 
H1    H     0.41907037814415 0.47801314372752 0.02050530665909 
H2    H     0.48324559973276 0.47471351772438 0.06771887749185 
H3    H     0.36613545793406 0.71022803604900 0.77687605629870 
H4    H     0.42890068117898 0.64464058822027 0.76245077868997 
H5    H     0.30856584304559 0.65889763667019 0.83145590460067 
H6    H     0.47669178880074 0.47587106755962 0.78172647511448 
H7    H     0.27122289112483 0.51187638978858 0.92167606927457 
H8    H     0.50056215014025 0.24936504170524 0.84052643074542 
H9    H     0.26692080886061 0.33204188540687 0.03321753282728 
H10   H     0.49070084285695 0.02402528073407 0.90881949502808 
H11   H     0.29473017019404 0.14411004170752 0.12928559619448 
H12   H     0.44996822684012 0.85638142663832 0.97167564513574 
H13   H     0.34677705271934 0.02109743963364 0.19158874262404 
H14   H     0.39066448413826 0.78870723007619 0.00380343369350 
H15   H     0.38255534894645 0.24242430838140 0.72995270329013 
H16   H     0.41237435126600 0.99436053620994 0.21680870746347 
H17   H     0.32530229309929 0.82833970828791 0.98883538556493 
H18   H     0.47146114928114 0.08646798025819 0.20208537538284 
H19   H     0.27413829960182 0.94171695045377 0.91818623583699 
H20   H     0.51073336507219 0.27258438301525 0.15272959302504 
H21   H     0.24553753289197 0.10728791208267 0.80708297418083 
H22   H     0.35342449320163 0.38305731772117 0.60906843774262 
H23   H     0.25069153784564 0.27368172143161 0.68961019062538 
H24   H     0.28736373429803 0.40521665495013 0.58936510841176 
