data_stdin
_audit_creation_method 'critic2'
_audit_creation_date 2023-8-11
_chemical_formula_sum 'C42 H24'
_cell_formula_units_Z 2
_cell_length_a        16.2322240705
_cell_length_b         7.8632071860
_cell_length_c        11.4549439115
_cell_angle_alpha       114.1874
_cell_angle_beta        94.9399
_cell_angle_gamma        93.2947
_cell_volume          1321.830673
_space_group_crystal_system triclinic
_space_group_IT_number 2
_space_group_name_H-M_alt 'P-1'
_space_group_name_Hall '-P 1'
loop_
_symmetry_equiv_pos_site_id
_symmetry_equiv_pos_as_xyz
 1 'x,y,z'
 2 '-x,-y,-z'
loop_
_atom_site_label
_atom_site_type_symbol
_atom_site_fract_x
_atom_site_fract_y
_atom_site_fract_z
C1    C     0.69617915977456 0.79738704559011 0.69951330606551 
C2    C     0.65787494853559 0.96952934018238 0.75698049997030 
C3    C     0.78498750559354 0.78539631294156 0.70109135481152 
C4    C     0.69641427504811 0.15177968628393 0.77847666143632 
C5    C     0.84787915547134 0.91634271869398 0.79876545119276 
C6    C     0.76255735945319 0.18291536747615 0.70999647247290 
C7    C     0.83340102917474 0.03671507523160 0.92918205420741 
C8    C     0.77721091520127 0.06031372376512 0.58067804606662 
C9    C     0.64239838353335 0.62819306927643 0.63542702346816 
C10   C     0.57655497522731 0.95822461199864 0.79312760272558 
C11   C     0.81176122171115 0.62934476938990 0.59915317367706 
C12   C     0.66773254803362 0.31184437059337 0.87450494377530 
C13   C     0.93114656195210 0.91938256921535 0.76906170929405 
C14   C     0.81631179376103 0.35239814836504 0.77487602311137 
C15   C     0.76431825819184 0.00363987339506 0.98754364419337 
C16   C     0.71383041132088 0.93156535168535 0.48173144157896 
C17   C     0.89489702800708 0.18763211897099 0.00771821113618 
C18   C     0.85728683525435 0.07915453858226 0.54298953753303 
C19   C     0.55770651857976 0.62424103571933 0.65916390075424 
C20   C     0.52769949255261 0.78141978256496 0.74375071077786 
C21   C     0.67350071214551 0.46397450909184 0.54791358915332 
C22   C     0.54444060633138 0.12390225971414 0.87697028585193 
C23   C     0.75425403202170 0.46987385706093 0.52333183505440 
C24   C     0.59131918055973 0.29342624068088 0.92295746529888 
C25   C     0.89668735644987 0.62994294996126 0.57705411612029 
C26   C     0.71601559467603 0.48902422761483 0.92283040517133 
C27   C     0.95372490835429 0.77547477938013 0.65567139929748 
C28   C     0.79155897149426 0.50415002637275 0.88185363419230 
C29   C     0.75250663628937 0.12213702855562 0.11188545416244 
C30   C     0.73757381068602 0.79849183947144 0.36358631467438 
C31   C     0.99251369922102 0.06636612542004 0.85256815974700 
C32   C     0.89343298195270 0.37274671115157 0.72988082077349 
C33   C     0.62761440486890 0.94132686900897 0.49037595250329 
C34   C     0.97325513132514 0.20343675733548 0.96346126956282 
C35   C     0.91581722364477 0.23416292116202 0.62215458110603 
C36   C     0.87950692387354 0.31178011779995 0.13241027099031 
C37   C     0.87834433726242 0.94774858821425 0.42268606104051 
C38   C     0.80902329956177 0.28177830281619 0.18359851696216 
C39   C     0.82186142206400 0.80633852676413 0.33829328717919 
C40   C     0.56873499247152 0.81807962443021 0.39390947634082 
C41   C     0.67639969035537 0.66725724061074 0.26895953759888 
C42   C     0.59309425301630 0.67526202426616 0.28389391980285 
H1    H     0.72036766567552 0.88077876075598 0.93398792396912 
H2    H     0.69933203065546 0.09137865727700 0.15454605874863 
H3    H     0.51812490036178 0.49242660354001 0.61174913353635 
H4    H     0.46484882461363 0.77551264407348 0.76968072400196 
H5    H     0.63127768872657 0.33628152819558 0.49815578315114 
H6    H     0.48302688876774 0.11177707922784 0.90624707966480 
H7    H     0.77738243922432 0.34753337401470 0.45197832232707 
H8    H     0.56972587743008 0.41882771486857 0.99386893803603 
H9    H     0.91485166744304 0.51213171941190 0.49557729709852 
H10   H     0.69335395384096 0.60954885192705 0.99675200168427 
H11   H     0.01835165923099 0.77934966086447 0.63721050923907 
H12   H     0.83173885508071 0.63559787828589 0.92511551593019 
H13   H     0.05501093857366 0.06728456227753 0.82473834349071 
H14   H     0.93388381579487 0.50207914153270 0.78257559084170 
H15   H     0.60756962223429 0.05020689144230 0.57435231370296 
H16   H     0.01897108940001 0.32039588888288 0.02329217095253 
H17   H     0.97623634869149 0.24692627892767 0.59025304092718 
H18   H     0.92576712179102 0.42961675171969 0.18921223216142 
H19   H     0.94126178770264 0.96319390648982 0.39985078015824 
H20   H     0.79782954469751 0.37890020676433 0.27933389009519 
H21   H     0.83877816293078 0.70431651816268 0.24771265125674 
H22   H     0.50305200163075 0.83155012421912 0.40308368085084 
H23   H     0.69678470530569 0.56156378918170 0.18305084345541 
H24   H     0.54601834503817 0.57553505656379 0.21063359799231 
