data_stdin
_audit_creation_method 'critic2'
_audit_creation_date 2023-8-11
_chemical_formula_sum 'C42 H24'
_cell_formula_units_Z 2
_cell_length_a        10.9411678561
_cell_length_b        20.6046324605
_cell_length_c         7.1859661908
_cell_angle_alpha       116.3497
_cell_angle_beta        96.7837
_cell_angle_gamma       110.2576
_cell_volume          1288.743211
_space_group_crystal_system triclinic
_space_group_IT_number 2
_space_group_name_H-M_alt 'P-1'
_space_group_name_Hall '-P 1'
loop_
_symmetry_equiv_pos_site_id
_symmetry_equiv_pos_as_xyz
 1 'x,y,z'
 2 '-x,-y,-z'
loop_
_atom_site_label
_atom_site_type_symbol
_atom_site_fract_x
_atom_site_fract_y
_atom_site_fract_z
C1    C     0.57783514593552 0.83012995758500 0.43515059166464 
C2    C     0.48654976591936 0.84714841199398 0.55875450621648 
C3    C     0.55004130252484 0.75042465098588 0.26121911302618 
C4    C     0.38655931321709 0.78880337751759 0.59074019068953 
C5    C     0.41416303929556 0.68419922025599 0.12775229463154 
C6    C     0.39747629587895 0.71994332424688 0.58412756964631 
C7    C     0.29008279131753 0.69397637134889 0.09140125398154 
C8    C     0.52499735897020 0.71459300849320 0.62736126441173 
C9    C     0.70380242759075 0.89665396437593 0.48900162986038 
C10   C     0.49476699671735 0.92615879384872 0.65365802767447 
C11   C     0.66580189866888 0.73708107003657 0.21794632004130 
C12   C     0.26829676770601 0.79970806687908 0.62732450803916 
C13   C     0.40132246517121 0.60424307845511 0.01428805974183 
C14   C     0.27308515781059 0.65248174173641 0.53263848781124 
C15   C     0.29156172765487 0.76765798664052 0.12750932496430 
C16   C     0.65833109604032 0.78370357725799 0.76410076809125 
C17   C     0.15879650407181 0.62510445650737 0.00014831954427 
C18   C     0.51854024463460 0.63627749555256 0.54148405876592 
C19   C     0.71762945329603 0.97703468885900 0.60810815285920 
C20   C     0.61189120616347 0.99053852213078 0.67376318280211 
C21   C     0.81395190740090 0.88174233673292 0.42384729713839 
C22   C     0.38457417685494 0.93959086069778 0.72358199294979 
C23   C     0.79825085549460 0.80426820677362 0.30761329687549 
C24   C     0.26981621557468 0.87637124087809 0.69336350807553 
C25   C     0.64793201598622 0.65667818337286 0.08422434357096 
C26   C     0.14992830500066 0.73388272503938 0.59739462970765 
C27   C     0.52082958737366 0.59210590493638 0.99693084094326 
C28   C     0.14970648430160 0.66098758371987 0.53813467727678 
C29   C     0.17153230003278 0.77568429936925 0.10091891539871 
C30   C     0.78019401764543 0.77245795121254 0.76041113777121 
C31   C     0.26846074135696 0.53625323391619 0.91580495360361 
C32   C     0.27242483296192 0.57655521466978 0.47223696727407 
C33   C     0.67451969654065 0.86171191834114 0.91588358959075 
C34   C     0.15176593972023 0.54646345335573 0.92020230446957 
C35   C     0.38956456573979 0.56738848039516 0.45893745494239 
C36   C     0.03732406261505 0.63532722435382 0.98008820319282 
C37   C     0.64196745860516 0.62702163778642 0.54402203386634 
C38   C     0.04336299940604 0.70978723040883 0.03363602911791 
C39   C     0.76807353398756 0.69253990545332 0.63979100107095 
C40   C     0.80323657185205 0.92675172870153 0.03889258862058 
C41   C     0.91088600410872 0.84038102742866 0.88493394359335 
C42   C     0.92292125453308 0.91679359267564 0.01868862508615 
H1    H     0.38915446750088 0.81835739247126 0.17342651382932 
H2    H     0.17614606729699 0.83316330197314 0.13009977835146 
H3    H     0.81147414280866 0.02697427673649 0.63639473057445 
H4    H     0.61696506371976 0.05076406177493 0.74876015234841 
H5    H     0.91211564453303 0.93322399873142 0.47491244612252 
H6    H     0.39126793967644 0.00003738828282 0.79059838199319 
H7    H     0.88530318587942 0.79285761258743 0.27270550631795 
H8    H     0.17989080218010 0.88423419591155 0.72784031582167 
H9    H     0.73811396311378 0.64751925092910 0.05787857713588 
H10   H     0.05820898373264 0.74222033841014 0.61512889907211 
H11   H     0.50837440815537 0.53040303497935 0.90491519580922 
H12   H     0.05698200616059 0.60938174763208 0.50460734175001 
H13   H     0.26271477854123 0.47575943139297 0.84093013785284 
H14   H     0.17593696617857 0.52566704034433 0.43100526828749 
H15   H     0.58343994589885 0.87004053017669 0.93773317661937 
H16   H     0.05144106048297 0.49457304595844 0.85379542494645 
H17   H     0.38741109834545 0.50807363004410 0.39586804253843 
H18   H     0.93847610134510 0.58276850840355 0.91851728029631 
H19   H     0.63319480845727 0.56592493339565 0.46502619451985 
H20   H     0.94928373368723 0.71671700682065 0.01496124066575 
H21   H     0.86097713448963 0.68430929568152 0.63533127488544 
H22   H     0.81227487471119 0.98599984536429 0.15406303086565 
H23   H     0.00265588158370 0.83101138272734 0.87663328278703 
H24   H     0.02390880122909 0.96863426216075 0.11131260071648 
