data_stdin
_audit_creation_method 'critic2'
_audit_creation_date 2023-8-11
_chemical_formula_sum 'C42 H24'
_cell_formula_units_Z 1
_cell_length_a         8.9685236373
_cell_length_b         8.0429180312
_cell_length_c        10.8239175797
_cell_angle_alpha        79.7240
_cell_angle_beta        67.8551
_cell_angle_gamma       106.4584
_cell_volume           656.821842
_space_group_crystal_system triclinic
_space_group_IT_number 1
_space_group_name_H-M_alt 'P1'
_space_group_name_Hall 'P 1'
loop_
_symmetry_equiv_pos_site_id
_symmetry_equiv_pos_as_xyz
 1 'x,y,z'
loop_
_atom_site_label
_atom_site_type_symbol
_atom_site_fract_x
_atom_site_fract_y
_atom_site_fract_z
C1    C     0.99966136674374 0.99671111357397 0.00751157016325 
C2    C     0.04645104144019 0.19089408309566 0.95015163903444 
C3    C     0.92006552812368 0.85988521440963 0.95659174302192 
C4    C     0.96599991141591 0.26858654004372 0.87527859346215 
C5    C     0.93793222799902 0.89198529086267 0.81484628018588 
C6    C     0.79272863699893 0.17548293129754 0.89118222254498 
C7    C     0.08433005304127 0.03520252150833 0.69109141043730 
C8    C     0.64870571156103 0.03578031785663 0.01740001704800 
C9    C     0.03323599416532 0.93690700725067 0.12263582503104 
C10   C     0.17966668060046 0.31298725843725 0.96903942665801 
C11   C     0.81784950589382 0.67907455738903 0.05390243345213 
C12   C     0.06427132512130 0.44987024472841 0.77887399495822 
C13   C     0.81008198737584 0.76647511292148 0.79322808255701 
C14   C     0.76203829574213 0.23115409900314 0.77322633359614 
C15   C     0.24444168462296 0.13393717950102 0.68855349882006 
C16   C     0.63365125594919 0.01069577779148 0.15871192414800 
C17   C     0.07342347430152 0.07238142944059 0.56103643321981 
C18   C     0.50401338802348 0.92369881977534 0.00493660302558 
C19   C     0.15200777928192 0.06486615557225 0.15125598444488 
C20   C     0.23221152799066 0.24518265866216 0.06997251088018 
C21   C     0.94720346193252 0.74968307033710 0.20839618062711 
C22   C     0.25809240644567 0.50195286741689 0.88754289716601 
C23   C     0.83260536339344 0.62818639440614 0.18057917282098 
C24   C     0.20956020319631 0.56558598815779 0.78889343801077 
C25   C     0.70299501888374 0.54947242092382 0.02338637834116 
C26   C     0.01828825944549 0.51240053828395 0.67215941782675 
C27   C     0.69131134850765 0.59684810794860 0.90072665275863 
C28   C     0.88076624533379 0.39819793272583 0.66237061184136 
C29   C     0.37845975286154 0.27301697201690 0.56958246931932 
C30   C     0.50011999461669 0.84985866252509 0.27120247858059 
C31   C     0.80499142771237 0.80551328437799 0.66125310430282 
C32   C     0.60913535349199 0.12380160736786 0.76890567240574 
C33   C     0.73514330501914 0.14418768560623 0.19540912184823 
C34   C     0.92754570275711 0.95775877660820 0.55076982003029 
C35   C     0.48845181197018 0.96928021296645 0.87838756534523 
C36   C     0.21103027878729 0.21807507895844 0.44162522739140 
C37   C     0.36966120737159 0.76778943326310 0.12065290964468 
C38   C     0.36057874425068 0.31929278174929 0.44572435869491 
C39   C     0.37195047150903 0.72664361938861 0.24755654630548 
C40   C     0.71680713173976 0.11445855435657 0.33111185042537 
C41   C     0.48900982762193 0.81902968189473 0.40788922147532 
C42   C     0.59616885339735 0.94823000255793 0.43807134174561 
H1    H     0.26287703489762 0.09988291667440 0.78191947222463 
H2    H     0.49841019775622 0.34856903241947 0.57223606363737 
H3    H     0.18382849796968 0.01403491482773 0.23435284517712 
H4    H     0.33227980913084 0.34132359590011 0.08464941588889 
H5    H     0.96955948055242 0.70808922513517 0.29922517333940 
H6    H     0.36209357237459 0.59251731587763 0.90151279877664 
H7    H     0.75618775783812 0.48811685553770 0.25142483862850 
H8    H     0.27623985893988 0.70731162322744 0.72000335556341 
H9    H     0.62348554018839 0.41317485955293 0.10026701563508 
H10   H     0.09662962482003 0.65004924716120 0.59730759774939 
H11   H     0.60022097207428 0.50008395663723 0.87858506551308 
H12   H     0.85201961965870 0.43906816261893 0.57505852035741 
H13   H     0.69979991318194 0.71010484301125 0.65109142447433 
H14   H     0.59157130045734 0.16576816101389 0.67570091988713 
H15   H     0.82803025489703 0.27434135147622 0.11579083421133 
H16   H     0.92018335462376 0.98914458269598 0.45160913730881 
H17   H     0.37322640973347 0.88422114416248 0.87402437870579 
H18   H     0.19675884566363 0.24767790656507 0.34542671678956 
H19   H     0.26391120335232 0.68280591167802 0.10528206214761 
H20   H     0.46450747438398 0.43220493509850 0.35375775915545 
H21   H     0.27128297217364 0.60539824430179 0.33476094825753 
H22   H     0.79745121621265 0.22074024335981 0.35485793451508 
H23   H     0.39148957920937 0.69128681287863 0.48946165207555 
H24   H     0.58551243329115 0.92435890145885 0.54384295556009 
