data_stdin
_audit_creation_method 'critic2'
_audit_creation_date 2023-8-11
_chemical_formula_sum 'C42 H24'
_cell_formula_units_Z 8
_cell_length_a        19.0521109965
_cell_length_b        10.1877512137
_cell_length_c        33.5115423741
_cell_angle_alpha        90.0013
_cell_angle_beta       124.7668
_cell_angle_gamma        89.9995
_cell_volume          5343.337451
_space_group_crystal_system monoclinic
_space_group_IT_number 15
_space_group_name_H-M_alt 'C2/c'
_space_group_name_Hall '-C 2yc'
loop_
_symmetry_equiv_pos_site_id
_symmetry_equiv_pos_as_xyz
 1 'x,y,z'
 2 '-1/2-x,-1/2-y,-z'
 3 '-x,y,-1/2-z'
 4 '-1/2+x,-1/2-y,-1/2+z'
 5 '-1/2+x,-1/2+y,z'
 6 '-x,-y,-z'
 7 '-1/2-x,-1/2+y,-1/2-z'
 8 'x,-y,-1/2+z'
loop_
_atom_site_label
_atom_site_type_symbol
_atom_site_fract_x
_atom_site_fract_y
_atom_site_fract_z
C1    C     0.13442625846444 0.29480870162045 0.58610478889101 
C2    C     0.13590323435921 0.37531848506360 0.62208046666151 
C3    C     0.09693916919665 0.16529182967595 0.57180475448922 
C4    C     0.13087015153110 0.32436389252471 0.66061431312804 
C5    C     0.02840255182792 0.11917688226852 0.57482028599399 
C6    C     0.15586499132773 0.19305321896986 0.68040688421953 
C7    C     0.96607173100775 0.20403192167875 0.57364287218813 
C8    C     0.21926191127655 0.11369280671546 0.68084371813004 
C9    C     0.17217212430617 0.34699158569660 0.56311418189157 
C10   C     0.14243249231390 0.51364538886840 0.61926197932034 
C11   C     0.12807451031133 0.07864764479922 0.55183425428468 
C12   C     0.09900547197560 0.40958856616726 0.68048450541258 
C13   C     0.01609349328888 0.98153017392888 0.57438132802042 
C14   C     0.11562993760132 0.13972034435745 0.70197952066903 
C15   C     0.95145168548932 0.33567865840341 0.55701719768981 
C16   C     0.28758567559737 0.16541113802619 0.67817799466872 
C17   C     0.91091972057525 0.15044480007135 0.58570024097243 
C18   C     0.21940218790664 0.97612721993229 0.68822408981014 
C19   C     0.18847869420960 0.48434037674040 0.56567246713956 
C20   C     0.16820382377209 0.56620645769707 0.59005569489533 
C21   C     0.19281438257079 0.26139714880088 0.53760119024275 
C22   C     0.12352257729569 0.59830122870014 0.64582950824176 
C23   C     0.17699889361990 0.12967825264329 0.53534845865258 
C24   C     0.09715947937373 0.54764260803679 0.67301967843058 
C25   C     0.10739524498466 0.94266437328131 0.54674898365966 
C26   C     0.06840732821559 0.35604854912030 0.70711583635161 
C27   C     0.05753622343656 0.89463873029411 0.56074037683304 
C28   C     0.06989388277417 0.22341208036540 0.71366015511834 
C29   C     0.89265617701208 0.41422163525174 0.55741788816451 
C30   C     0.33618517055680 0.07712351182658 0.66967458575287 
C31   C     0.95898536037162 0.93077273201060 0.58531441444128 
C32   C     0.12346862507631 0.00371450461105 0.71323918279027 
C33   C     0.31427412735756 0.29826967840167 0.68775877555677 
C34   C     0.91162836188598 0.01253198779584 0.59349791579883 
C35   C     0.17023235002239 0.92317112649590 0.70418899333939 
C36   C     0.85281456922151 0.23377127163126 0.58701751924552 
C37   C     0.27091437747352 0.89082678212529 0.68118202509341 
C38   C     0.84452329461426 0.36424578252928 0.57389315171893 
C39   C     0.32381338469441 0.93897964321603 0.66948837242794 
C40   C     0.37995241102625 0.34355085330814 0.68511887869352 
C41   C     0.40046163261152 0.12688326327033 0.66490120859703 
C42   C     0.42206386617029 0.25820625076675 0.67219100656989 
H1    H     0.98619053972960 0.37548682944815 0.54298813710130 
H2    H     0.88388252081677 0.51542931445784 0.54493667549535 
H3    H     0.21359486956407 0.52354273917725 0.54595724984249 
H4    H     0.17468992517017 0.67225566065968 0.58922566790195 
H5    H     0.22432238933626 0.30262623989955 0.52165874074200 
H6    H     0.12700381235311 0.70386037868253 0.64227996194027 
H7    H     0.19664974508436 0.06257936896651 0.51815506201697 
H8    H     0.07771270245609 0.61164175211531 0.69112300178526 
H9    H     0.13209890307475 0.87802969187365 0.53156530981274 
H10   H     0.04209483515866 0.42230918704573 0.72090673679022 
H11   H     0.04335671815843 0.79018767366653 0.55818140439769 
H12   H     0.04098849573745 0.18022694875653 0.73081677435634 
H13   H     0.95424151086798 0.82456604111755 0.58708717275400 
H14   H     0.09053680418749 0.96468340750899 0.72861663735695 
H15   H     0.28365412373425 0.36578126029158 0.69835507633884 
H16   H     0.87032529828816 0.97312676777960 0.60337568834502 
H17   H     0.17469988241511 0.81843280641265 0.71179361516383 
H18   H     0.81360608021003 0.19207141584639 0.59798986501729 
H19   H     0.26765220969972 0.78578548873309 0.68593051975866 
H20   H     0.80016687668402 0.42732178978749 0.57553406251149 
H21   H     0.36191167412961 0.87331980682020 0.66336269385984 
H22   H     0.39886298294829 0.44639056754152 0.69289334529839 
H23   H     0.43355040390774 0.05827146768005 0.65608994202942 
H24   H     0.47225940127067 0.29531835411645 0.66899648739894 
