data_stdin
_audit_creation_method 'critic2'
_audit_creation_date 2023-8-11
_chemical_formula_sum 'C42 H24'
_cell_formula_units_Z 4
_cell_length_a         7.5709882471
_cell_length_b        16.5011646204
_cell_length_c        25.2430447235
_cell_angle_alpha        89.9999
_cell_angle_beta        54.9954
_cell_angle_gamma        90.0005
_cell_volume          2583.147678
_space_group_crystal_system monoclinic
_space_group_IT_number 14
_space_group_name_H-M_alt 'P2_1/c'
_space_group_name_Hall '-P 2ybc'
loop_
_symmetry_equiv_pos_site_id
_symmetry_equiv_pos_as_xyz
 1 'x,y,z'
 2 '-x,-y,-z'
 3 '-x,-1/2+y,-1/2-z'
 4 'x,-1/2-y,-1/2+z'
loop_
_atom_site_label
_atom_site_type_symbol
_atom_site_fract_x
_atom_site_fract_y
_atom_site_fract_z
C1    C     0.28578889214883 0.24166378783946 0.54052927490890 
C2    C     0.18593993240496 0.16271423379783 0.55925915819993 
C3    C     0.25627456577694 0.30337323343565 0.58558536156620 
C4    C     0.98806253273218 0.14533947597621 0.62121282291929 
C5    C     0.20365648558170 0.28767752628787 0.64940334076878 
C6    C     0.82241594227852 0.20447971245646 0.66138261742435 
C7    C     0.25228164624880 0.21273873000853 0.66858585052859 
C8    C     0.78306164299549 0.27744794201752 0.63788567977377 
C9    C     0.41764957966097 0.26010912307603 0.47336715750903 
C10   C     0.28638318680951 0.09842922461849 0.51367703836978 
C11   C     0.28094619677734 0.38554434940178 0.56505296260438 
C12   C     0.95458346679559 0.06409101503788 0.64389574598134 
C13   C     0.10980620495745 0.35144318061994 0.69549288003421 
C14   C     0.68589407242622 0.18832153538128 0.72912467730303 
C15   C     0.40737759325976 0.15645914889539 0.62356733918902 
C16   C     0.84347184888864 0.28889718404034 0.57239528130905 
C17   C     0.15572288629791 0.19752954016929 0.73569154988391 
C18   C     0.66430640514504 0.34075720754112 0.68301969290692 
C19   C     0.49586079179176 0.19591438853451 0.42739215310046 
C20   C     0.44546047566777 0.11701300730708 0.44734952268079 
C21   C     0.46518363012036 0.34254260594912 0.45327866901714 
C22   C     0.22525137052808 0.01676113189346 0.53508381498512 
C23   C     0.38273652833912 0.40331077156570 0.49827425432353 
C24   C     0.07639061050000 0.00034911886900 0.59929185456050 
C25   C     0.20442874986345 0.44907282853782 0.61143533028762 
C26   C     0.80066735209297 0.04780133896575 0.71083006168269 
C27   C     0.10876126068974 0.43189628024067 0.67539553582007 
C28   C     0.68285716937088 0.10956308856163 0.75272681843434 
C29   C     0.45144266496525 0.08600325084909 0.64349329505065 
C30   C     0.83243713401873 0.36829665394311 0.55162961375431 
C31   C     0.01934230685282 0.33496256031391 0.76196397534346 
C32   C     0.55039009614354 0.25039882496333 0.77291992591181 
C33   C     0.89749884059471 0.22420336887084 0.52862798363542 
C34   C     0.03204804507410 0.25962432733118 0.78189986665687 
C35   C     0.55182145179136 0.32604783163494 0.75060740595855 
C36   C     0.19422098243037 0.12279730247204 0.75488086137905 
C37   C     0.65249478614084 0.41881340962287 0.66083746889327 
C38   C     0.33730925896574 0.06703595432699 0.70967503317036 
C39   C     0.74252457743994 0.43339355646209 0.59700486127326 
C40   C     0.95811907031761 0.23757097648418 0.46623013159382 
C41   C     0.90172101100811 0.38092099604482 0.48693932805010 
C42   C     0.96742780785941 0.31696542422268 0.44435344460743 
H1    H     0.49915170071440 0.17071386208108 0.57241056434152 
H2    H     0.57848418056174 0.04565402978301 0.60788053281455 
H3    H     0.60212710037917 0.21052324258187 0.37614836724633 
H4    H     0.51985909616240 0.06751863176885 0.41268274583788 
H5    H     0.55975292238064 0.35614029056062 0.40170067613568 
H6    H     0.30767206336523 0.96780880747869 0.50027494643451 
H7    H     0.40190503306867 0.46645399533046 0.48347758896817 
H8    H     0.04312614248793 0.93809324172679 0.61689676297870 
H9    H     0.21816792070657 0.51137419202523 0.59520731930477 
H10   H     0.78498492384496 0.98596464372390 0.72810940897887 
H11   H     0.03912210787529 0.47996317678052 0.71146038648507 
H12   H     0.57553036097375 0.09864154703158 0.80464094751204 
H13   H     0.93567369582726 0.38406095373561 0.79666722002009 
H14   H     0.44877484578012 0.23689045060119 0.82448859009568 
H15   H     0.88818176440616 0.16245471910916 0.54470516484706 
H16   H     0.95715869152269 0.24717445431865 0.83295042276247 
H17   H     0.45719594382271 0.37498059921291 0.78424204656340 
H18   H     0.11393329663188 0.11078651492392 0.80628293562984 
H19   H     0.57131131215112 0.46712741384344 0.69631209283314 
H20   H     0.36780198602248 0.01029644825009 0.72504890742025 
H21   H     0.73805784617295 0.49374078596213 0.58029429335632 
H22   H     0.99876925926649 0.18614419162037 0.43408770344772 
H23   H     0.89895588331669 0.44236215599052 0.47165417024866 
H24   H     0.02099464239707 0.32751884556930 0.39468282310093 
