data_stdin
_audit_creation_method 'critic2'
_audit_creation_date 2023-8-11
_chemical_formula_sum 'C42 H24'
_cell_formula_units_Z 2
_cell_length_a        10.2232622566
_cell_length_b        14.2097563800
_cell_length_c        10.2435919153
_cell_angle_alpha        90.0004
_cell_angle_beta        65.2929
_cell_angle_gamma        89.9998
_cell_volume          1351.862007
_space_group_crystal_system monoclinic
_space_group_IT_number 7
_space_group_name_H-M_alt 'Pc'
_space_group_name_Hall 'P -2yc'
loop_
_symmetry_equiv_pos_site_id
_symmetry_equiv_pos_as_xyz
 1 'x,y,z'
 2 'x,-y,-1/2+z'
loop_
_atom_site_label
_atom_site_type_symbol
_atom_site_fract_x
_atom_site_fract_y
_atom_site_fract_z
C1    C     0.00549491463606 0.65812834887700 0.99076679703641 
C2    C     0.88411255761999 0.70000455852365 0.97531622248934 
C3    C     0.02615720525653 0.65934735277505 0.12189569409208 
C4    C     0.80266716988635 0.77884537337541 0.05912086013568 
C5    C     0.91125066010617 0.66669925210235 0.26411520691795 
C6    C     0.85796899057012 0.84666186562127 0.12872533064197 
C7    C     0.76321146273918 0.63934353366109 0.30108418140799 
C8    C     0.00866348513569 0.86942290650383 0.08508568130828 
C9    C     0.11027735952120 0.61158769128554 0.86920916829114 
C10   C     0.84217507856571 0.66018897597186 0.87129629490566 
C11   C     0.16978779514223 0.65019305954278 0.10950281934474 
C12   C     0.65808619370284 0.78910648581171 0.07529872780404 
C13   C     0.94682714690742 0.69705195057081 0.37750700396213 
C14   C     0.75516775397426 0.89586488146072 0.24963769923261 
C15   C     0.72126544419260 0.57999012952261 0.21404990099251 
C16   C     0.11911998994824 0.86136529872562 0.93906117396105 
C17   C     0.65383532030218 0.66717497632010 0.43705394681918 
C18   C     0.04887480281967 0.90999155780681 0.19001642255910 
C19   C     0.07536487701821 0.58471565920705 0.75345645069410 
C20   C     0.94062873767968 0.60148006852008 0.76089345784828 
C21   C     0.24823853587401 0.59206705927376 0.86570233569074 
C22   C     0.70216591518160 0.67955960387136 0.87935661972022 
C23   C     0.28016490558009 0.61752764793824 0.97800481099634 
C24   C     0.60994918330762 0.73741705536990 0.98426631674383 
C25   C     0.20079693876852 0.67111467048233 0.22958152898468 
C26   C     0.56209685273271 0.84988860157387 0.18354133546157 
C27   C     0.09353817883651 0.69995641471458 0.35673645417754 
C28   C     0.60753606033033 0.89687601388124 0.27361352458487 
C29   C     0.57848462387973 0.55784494419611 0.25113388160403 
C30   C     0.26675631251152 0.87669064979526 0.91225153188150 
C31   C     0.83509680648048 0.72296286175252 0.51287807099574 
C32   C     0.79992350678461 0.94245123506241 0.34719306180173 
C33   C     0.08849613349770 0.84789582640819 0.81742191052268 
C34   C     0.69344006772609 0.71297812548303 0.53918245558708 
C35   C     0.94166054086419 0.94202437075437 0.32382524348429 
C36   C     0.50790794658408 0.64535530082568 0.47156359791718 
C37   C     0.19707994528876 0.92374987961199 0.15958597078950 
C38   C     0.46986989723257 0.59334737143068 0.37897147551959 
C39   C     0.30265876471550 0.90494304525322 0.02675321983122 
C40   C     0.19659907119628 0.84203808395075 0.68004032499106 
C41   C     0.37586724232488 0.86862725684099 0.77073025923499 
C42   C     0.34216045279812 0.84996526853559 0.65616096072357 
H1    H     0.80266490144125 0.55049197471580 0.11612105459071 
H2    H     0.55153113605241 0.51270555498458 0.17987667190055 
H3    H     0.15471101349175 0.54604115907376 0.66340192782129 
H4    H     0.90870485259037 0.57389869150677 0.67947985128106 
H5    H     0.32877979879286 0.55922070451242 0.76977470597519 
H6    H     0.66892134967989 0.64412697968004 0.80398501452766 
H7    H     0.38821576681486 0.60760230369625 0.97192245119130 
H8    H     0.49970497924241 0.74769861472638 0.99688571597054 
H9    H     0.31173230127347 0.66596639288588 0.21717734036851 
H10   H     0.45065213212416 0.85439269707387 0.19763603696080 
H11   H     0.11768236975500 0.72065157133889 0.44674774716076 
H12   H     0.53218153767764 0.93825923985949 0.36287444110797 
H13   H     0.86566188044673 0.75199959637533 0.59456600906920 
H14   H     0.71871229297758 0.97525735648095 0.44303465203135 
H15   H     0.97739582453848 0.84486465313934 0.83154306583744 
H16   H     0.60851922333876 0.73562166811906 0.64084464848037 
H17   H     0.97571163254000 0.97157952008039 0.40266581141494 
H18   H     0.42588520686920 0.66988867909914 0.57372172556684 
H19   H     0.22354662564980 0.95200020191767 0.24447344851668 
H20   H     0.35724351477903 0.57748964543443 0.40674013380613 
H21   H     0.41562827968664 0.91595966060244 0.00391861899375 
H22   H     0.16847005514794 0.83344859415844 0.58926037428568 
H23   H     0.48737778376145 0.87982756258215 0.75376885131043 
H24   H     0.42670578004194 0.84380675035842 0.54793917546251 
