data_stdin
_audit_creation_method 'critic2'
_audit_creation_date 2023-8-11
_chemical_formula_sum 'C42 H24'
_cell_formula_units_Z 4
_cell_length_a        13.6522210911
_cell_length_b        11.7476567413
_cell_length_c        19.5270457549
_cell_angle_alpha        90.0009
_cell_angle_beta        59.0030
_cell_angle_gamma        90.0008
_cell_volume          2684.542498
_space_group_crystal_system monoclinic
_space_group_IT_number 14
_space_group_name_H-M_alt 'P2_1/c'
_space_group_name_Hall '-P 2ybc'
loop_
_symmetry_equiv_pos_site_id
_symmetry_equiv_pos_as_xyz
 1 'x,y,z'
 2 '-x,-y,-z'
 3 '-x,-1/2+y,-1/2-z'
 4 'x,-1/2-y,-1/2+z'
loop_
_atom_site_label
_atom_site_type_symbol
_atom_site_fract_x
_atom_site_fract_y
_atom_site_fract_z
C1    C     0.11560666689027 0.68229748842844 0.83750788072742 
C2    C     0.20893264420821 0.65226228320315 0.84873904921183 
C3    C     0.12286553298680 0.68498762212663 0.76099354846277 
C4    C     0.32855963896483 0.66265159333945 0.78784970799797 
C5    C     0.19839092677610 0.61541183645649 0.69262988318792 
C6    C     0.37413277438861 0.73919362518011 0.71995042554162 
C7    C     0.24719463950968 0.50732308217053 0.69671058981612 
C8    C     0.32101730649341 0.84405905694471 0.71653149000912 
C9    C     0.00875094273539 0.71057717730036 0.90656901476723 
C10   C     0.18056293317972 0.60711180733593 0.92450225803976 
C11   C     0.04675376079841 0.76066596701696 0.75392891724222 
C12   C     0.40689165639611 0.59079612614499 0.79505645124895 
C13   C     0.21978844875848 0.65109224730546 0.61645679302007 
C14   C     0.48191420475063 0.71054785799227 0.65145371907533 
C15   C     0.20853508856349 0.44478696007674 0.76830672696619 
C16   C     0.24490114237803 0.91256680070991 0.78570115960261 
C17   C     0.33291779464117 0.45436409617531 0.62422600727619 
C18   C     0.35384564280842 0.88958781925019 0.64003858509634 
C19   C     0.98623254120928 0.67648216450204 0.98338378772225 
C20   C     0.06709298582114 0.61861442876291 0.99093297803582 
C21   C     0.92597208152787 0.77252795230884 0.89793278402547 
C22   C     0.26500395242108 0.54811579793338 0.93293200086660 
C23   C     0.94946833899037 0.80539734303488 0.82377076538370 
C24   C     0.37267320746007 0.53344046954901 0.86840177180196 
C25   C     0.06692645883040 0.78958399523578 0.67700289132763 
C26   C     0.51947494320434 0.57506438705171 0.72872596135641 
C27   C     0.15570266825957 0.74146185121986 0.60998917943996 
C28   C     0.55293679818019 0.62729942775851 0.65745992132826 
C29   C     0.25922288810683 0.34358868429671 0.76968609842987 
C30   C     0.18500276315511 0.00573844169168 0.77648869049830 
C31   C     0.30312330933125 0.59416012057542 0.54556093351736 
C32   C     0.51865267947765 0.76543861001999 0.57700054287847 
C33   C     0.23677505773014 0.90056378302737 0.86077167952979 
C34   C     0.36045089850288 0.50140270072234 0.54898850992274 
C35   C     0.45156708955289 0.84573420665281 0.57025400208150 
C36   C     0.38597136757507 0.35239802586980 0.62740101638236 
C37   C     0.29288975920333 0.98331453497679 0.63308426058758 
C38   C     0.35154281013994 0.29839016022544 0.69905814368954 
C39   C     0.20697505251983 0.03594501534981 0.69904891712697 
C40   C     0.16796032573366 0.97120159546040 0.92427033125227 
C41   C     0.11103343338699 0.07349698355436 0.84341865595910 
C42   C     0.10200545116052 0.05656336808109 0.91632147683249 
H1    H     0.13663400557558 0.47662236289931 0.82352487915769 
H2    H     0.22732165533211 0.29776180622954 0.82567480293451 
H3    H     0.90163669600171 0.69220310872501 0.03505909325632 
H4    H     0.04721602723681 0.58250502550905 0.04801947110058 
H5    H     0.84665738307364 0.79789384520527 0.95147351020342 
H6    H     0.24003582094293 0.51076997735618 0.99077593072770 
H7    H     0.89163398622782 0.86119522960348 0.81669077254550 
H8    H     0.43499589736825 0.48031859405786 0.87233072618234 
H9    H     0.01068217209737 0.85180624180481 0.67336081403548 
H10   H     0.57664517099494 0.51726073905494 0.73493186973982 
H11   H     0.17470326254118 0.76635673368041 0.55068090979381 
H12   H     0.63620777305331 0.60872399171403 0.60515587792702 
H13   H     0.32069004348959 0.62719048500637 0.48815299109685 
H14   H     0.59979508561879 0.73978211340438 0.52519835020628 
H15   H     0.28882354397788 0.83693962193159 0.86760156541185 
H16   H     0.42537264594556 0.46002590489446 0.49448716577759 
H17   H     0.47526097937825 0.88222673312628 0.51237818748711 
H18   H     0.45400280931754 0.31667453337933 0.57147345744961 
H19   H     0.31739301997899 0.01214244121687 0.57328355956332 
H20   H     0.39263887308505 0.22019121813165 0.70116173600415 
H21   H     0.15949757023689 0.10623075966729 0.69343998022679 
H22   H     0.16455211214075 0.96108311507849 0.98090659643375 
H23   H     0.06333787816457 0.14136168998997 0.83560806850624 
H24   H     0.04543358845905 0.10949275450607 0.96726153041228 
