data_stdin
_audit_creation_method 'critic2'
_audit_creation_date 2023-8-11
_chemical_formula_sum 'C42 H24'
_cell_formula_units_Z 4
_cell_length_a        13.8117249000
_cell_length_b        18.6571948700
_cell_length_c        10.5422325801
_cell_angle_alpha        89.9997
_cell_angle_beta        90.0000
_cell_angle_gamma        90.0000
_cell_volume          2716.607282
_space_group_crystal_system orthorhombic
_space_group_IT_number 18
_space_group_name_H-M_alt 'P2_12_12'
_space_group_name_Hall 'P 2 2ab'
loop_
_symmetry_equiv_pos_site_id
_symmetry_equiv_pos_as_xyz
 1 'x,y,z'
 2 '-x,-y,z'
 3 '-1/2+x,-1/2-y,-z'
 4 '-1/2-x,-1/2+y,-z'
loop_
_atom_site_label
_atom_site_type_symbol
_atom_site_fract_x
_atom_site_fract_y
_atom_site_fract_z
C1    C     0.19099336389473 0.25392505621942 0.10452218033932 
C2    C     0.24956353681086 0.31786586574231 0.09549094948190 
C3    C     0.17654610365517 0.21357124228721 0.21999416497024 
C4    C     0.32867156695166 0.33469013393875 0.17993976342088 
C5    C     0.18686281588584 0.24253463022885 0.34635312036490 
C6    C     0.38469673654973 0.28198595496040 0.24823796096173 
C7    C     0.17396167098492 0.31759920202035 0.37813864519816 
C8    C     0.39807544625442 0.20865406479320 0.20786979265955 
C9    C     0.14358452819192 0.22982254808419 0.99258974691726 
C10   C     0.22765178658142 0.36776473218042 0.99764097561036 
C11   C     0.14845328898274 0.14030473938002 0.20829916166222 
C12   C     0.35201412086733 0.40824267597026 0.19767706980674 
C13   C     0.20321304888572 0.19406829519352 0.44807649278211 
C14   C     0.43144573438514 0.30454754423718 0.36219209811136 
C15   C     0.12288534445822 0.36610571169173 0.29943295192112 
C16   C     0.39331373380258 0.18484607920713 0.07684892354222 
C17   C     0.20548564124386 0.34293029973313 0.49932928144250 
C18   C     0.42717148925293 0.15778355523713 0.30075866614881 
C19   C     0.13364549345022 0.27722277885625 0.88750405036272 
C20   C     0.16742333910498 0.34605839775200 0.89477021880987 
C21   C     0.10431516794849 0.15921924232622 0.98786652675666 
C22   C     0.26593875338706 0.43870490270444 0.00464809482572 
C23   C     0.11274735750448 0.11433050017050 0.09000235431863 
C24   C     0.31902008123809 0.45978544080936 0.10779491895738 
C25   C     0.15542551631628 0.09394962410214 0.31541327813926 
C26   C     0.40809024217165 0.42927738256310 0.30479169026518 
C27   C     0.18862112962129 0.11916789691152 0.42939183219197 
C28   C     0.44089326555439 0.37910785108085 0.38924267760386 
C29   C     0.11117446289092 0.43712466192948 0.33339271411449 
C30   C     0.39371507097169 0.10969042385845 0.05024516322944 
C31   C     0.23164919416385 0.22090053193060 0.56932082432186 
C32   C     0.46829252716148 0.25252069349988 0.44829682594627 
C33   C     0.39935165643000 0.23206595586656 0.97178113004804 
C34   C     0.23926894887292 0.29277563981187 0.59131150085621 
C35   C     0.45987636987296 0.18102649515701 0.42209790175887 
C36   C     0.19586878693441 0.41657112577619 0.52978317759301 
C37   C     0.42819831073497 0.08327418969109 0.27049237151525 
C38   C     0.15042541116391 0.46342320401745 0.44760145729841 
C39   C     0.40735664434845 0.05971874508012 0.15104068092066 
C40   C     0.39734234066286 0.20712775900647 0.84839419576251 
C41   C     0.38811093825768 0.08539052655233 0.92320578627966 
C42   C     0.38842222385134 0.13320765659904 0.82334881215673 
H1    H     0.08999139844999 0.34696249492641 0.21230598216146 
H2    H     0.07057164914341 0.47266666613377 0.27133503730944 
H3    H     0.09475833100567 0.25883988266690 0.80385327097667 
H4    H     0.15138135629566 0.38422717613700 0.81946005623985 
H5    H     0.06951984396700 0.14148450755184 0.90046568142207 
H6    H     0.24780448454320 0.47696298241788 0.93032882179853 
H7    H     0.08858602312510 0.05880870451505 0.08429570570483 
H8    H     0.33931881015850 0.51574846744741 0.12037537840830 
H9    H     0.13659177895466 0.03757681784073 0.30355162811435 
H10   H     0.42048600329524 0.48627440354995 0.32018055607061 
H11   H     0.19957459628182 0.08293886201130 0.50922004548734 
H12   H     0.47788494291287 0.39487176953141 0.47622783469248 
H13   H     0.24819615877090 0.18263701739794 0.64429665272768 
H14   H     0.50154701395631 0.27073204497547 0.53619090768658 
H15   H     0.40915576736977 0.28899946426749 0.98795230167683 
H16   H     0.26429338713340 0.31241582033838 0.68276122862778 
H17   H     0.48416655585525 0.14103455693763 0.49037534223190 
H18   H     0.22266888100367 0.43540929583649 0.62119138016070 
H19   H     0.44676863522958 0.04549111874817 0.34533806374233 
H20   H     0.14260031903631 0.51977693838021 0.47249737683140 
H21   H     0.40853971611907 0.00274352418645 0.12896913619725 
H22   H     0.40440174306132 0.24486303395609 0.77013648906462 
H23   H     0.38546855836472 0.02784582992133 0.90625386930364 
H24   H     0.38591368403107 0.11405298403113 0.72580367166610 
