data_stdin
_audit_creation_method 'critic2'
_audit_creation_date 2023-8-11
_chemical_formula_sum 'C42 H24'
_cell_formula_units_Z 8
_cell_length_a        20.8057937300
_cell_length_b        13.5991191600
_cell_length_c        19.0351533005
_cell_angle_alpha        90.0000
_cell_angle_beta        89.9997
_cell_angle_gamma        90.0001
_cell_volume          5385.815186
_space_group_crystal_system orthorhombic
_space_group_IT_number 61
_space_group_name_H-M_alt 'Pbca'
_space_group_name_Hall '-P 2ac 2ab'
loop_
_symmetry_equiv_pos_site_id
_symmetry_equiv_pos_as_xyz
 1 'x,y,z'
 2 '-x,-y,-z'
 3 '-1/2+x,-1/2-y,-z'
 4 '-1/2-x,-1/2+y,z'
 5 '-x,-1/2+y,-1/2-z'
 6 'x,-1/2-y,-1/2+z'
 7 '-1/2-x,-y,-1/2+z'
 8 '-1/2+x,y,-1/2-z'
loop_
_atom_site_label
_atom_site_type_symbol
_atom_site_fract_x
_atom_site_fract_y
_atom_site_fract_z
C1    C     0.06607825969970 0.94555338862955 0.17675414503898 
C2    C     0.04055407835829 0.02971268100539 0.21343334114830 
C3    C     0.11472849306581 0.88112065185649 0.20516941390362 
C4    C     0.07467671632076 0.08159541648788 0.26805841838341 
C5    C     0.12438308761744 0.86281037047311 0.27906912591149 
C6    C     0.14384224249676 0.08230609425065 0.27549333045995 
C7    C     0.07451949503375 0.87283283022395 0.33183409017263 
C8    C     0.18916593167255 0.06787848621055 0.21878733454249 
C9    C     0.04243866104428 0.92545822956151 0.10818927873357 
C10   C     0.97849556131978 0.06433107301504 0.19424817240038 
C11   C     0.15519332833368 0.83143102748374 0.15634852005096 
C12   C     0.03760310341297 0.13563692732628 0.31755185822191 
C13   C     0.18497371142096 0.82541973974612 0.30074377209137 
C14   C     0.16910140630009 0.10074528793923 0.34389703600069 
C15   C     0.00808793332247 0.87601005002096 0.31552768498487 
C16   C     0.17590309117231 0.08964445204084 0.14553267199785 
C17   C     0.09198920185611 0.87064709773692 0.40448869752088 
C18   C     0.25268662202513 0.03845859672608 0.23632508138231 
C19   C     0.98372903150484 0.96980631046301 0.08602553444805 
C20   C     0.95082264436681 0.03215100106662 0.12962736409938 
C21   C     0.07868211080428 0.86328258808698 0.06255941514363 
C22   C     0.94510470055335 0.12978257976989 0.24002035434909 
C23   C     0.13627707343229 0.82516446211031 0.08446337384815 
C24   C     0.97204698455784 0.15771438868378 0.30252039276282 
C25   C     0.21319953431053 0.78714929636577 0.18019175237132 
C26   C     0.06644571248239 0.16713051370238 0.38161207974465 
C27   C     0.22963896061014 0.79067589108966 0.24973962107670 
C28   C     0.12885943559485 0.14299233596535 0.39650055711518 
C29   C     0.96227113878472 0.88803269396709 0.36738085443428 
C30   C     0.22030044324156 0.05737473889449 0.09284646863453 
C31   C     0.20026282070715 0.82049921178622 0.37381803333967 
C32   C     0.23450090909128 0.07799129945462 0.35875563245760 
C33   C     0.12403329614606 0.14963778117691 0.12328838787951 
C34   C     0.15648131114931 0.84725893268279 0.42373232103757 
C35   C     0.27348366343516 0.04040557893435 0.30754630667534 
C36   C     0.04446008959719 0.88662116884502 0.45650780164921 
C37   C     0.29688728444748 0.01070737736581 0.18252305583903 
C38   C     0.98061091355105 0.89754775860653 0.43830397819838 
C39   C     0.28015347917281 0.01472319944695 0.11328227778403 
C40   C     0.11292823653073 0.16870147213789 0.05296940481027 
C41   C     0.20652436519433 0.07467115729437 0.02105744588365 
C42   C     0.15332000268068 0.12844243252227 0.00096331156328 
H1    H     0.99279182932440 0.86658922166659 0.26142385845370 
H2    H     0.91155331513438 0.88857406726971 0.35338245366240 
H3    H     0.96463246976752 0.95126312088880 0.03449130085936 
H4    H     0.90442046201376 0.06206611267318 0.11385261812431 
H5    H     0.06144734630373 0.85098630770252 0.00920791486649 
H6    H     0.89706485446849 0.15448734445534 0.22573178876450 
H7    H     0.16728925174388 0.78558092964207 0.04807470349267 
H8    H     0.94481406010930 0.20110121162112 0.34023503457563 
H9    H     0.24487890375782 0.75252563297373 0.14196480521132 
H10   H     0.03687946633825 0.20707129412872 0.41925725736400 
H11   H     0.27562812102897 0.76181725999068 0.26763589376871 
H12   H     0.14980925330856 0.15974818062594 0.44762962239307 
H13   H     0.24823509658722 0.79608712629893 0.38870595202026 
H14   H     0.25237079446639 0.08930653920207 0.41194811340783 
H15   H     0.09273528420865 0.18315275125455 0.16211826700122 
H16   H     0.16917902585855 0.84694340865074 0.47924267271551 
H17   H     0.32218773757514 0.01642005568889 0.31944699436689 
H18   H     0.05902695954284 0.88848405676767 0.51152351060082 
H19   H     0.34461466135217 0.98657893351382 0.19840683941720 
H20   H     0.94476255697480 0.91091905036870 0.47883041510700 
H21   H     0.31351378136864 0.99085584510596 0.07251298568548 
H22   H     0.07263611558535 0.21561352966087 0.03846799433216 
H23   H     0.23995091019169 0.04718286787736 0.98167345039647 
H24   H     0.14347970632647 0.14165651345988 0.94555368912942 
