data_stdin
_audit_creation_method 'critic2'
_audit_creation_date 2023-8-11
_chemical_formula_sum 'C42 H24'
_cell_formula_units_Z 2
_cell_length_a         7.1856565372
_cell_length_b        17.0151155934
_cell_length_c        10.9459633911
_cell_angle_alpha        80.0286
_cell_angle_beta        83.2702
_cell_angle_gamma        79.0065
_cell_volume          1288.989102
_space_group_crystal_system triclinic
_space_group_IT_number 2
_space_group_name_H-M_alt 'P-1'
_space_group_name_Hall '-P 1'
loop_
_symmetry_equiv_pos_site_id
_symmetry_equiv_pos_as_xyz
 1 'x,y,z'
 2 '-x,-y,-z'
loop_
_atom_site_label
_atom_site_type_symbol
_atom_site_fract_x
_atom_site_fract_y
_atom_site_fract_z
C1    C     0.39483703009886 0.33017468157446 0.74839751995928 
C2    C     0.28825856362222 0.34721609932637 0.64009443064486 
C3    C     0.48881881764482 0.25041688322308 0.80033635736389 
C4    C     0.19782873663202 0.28887658582476 0.59832806987484 
C5    C     0.55586466987067 0.18412633907576 0.73074171902456 
C6    C     0.13529296333935 0.22004902515384 0.67797246445865 
C7    C     0.60205019482849 0.19382033388802 0.59696567893216 
C8    C     0.08669692458377 0.21474035021616 0.81075325647768 
C9    C     0.40790133743272 0.39671884872789 0.80777467244421 
C10   C     0.27270433645645 0.42621426007724 0.56932887332835 
C11   C     0.51879538894646 0.23711323061145 0.92935951263177 
C12   C     0.17260351480269 0.29971993182596 0.46918777270897 
C13   C     0.58930303266841 0.10417980916018 0.79784828738704 
C14   C     0.11923985301462 0.15257623643348 0.62102766161161 
C15   C     0.63983789964031 0.26746901493809 0.52475093345816 
C16   C     0.01922790437263 0.28391211719974 0.87489714305543 
C17   C     0.62445818631001 0.12486701346305 0.53468299218646 
C18   C     0.09416858143673 0.13644015184368 0.88256007186413 
C19   C     0.36952361809552 0.47711275312430 0.74122934534362 
C20   C     0.31725903651147 0.49059629124095 0.62203502467914 
C21   C     0.45824097479507 0.38183051077286 0.93277986243139 
C22   C     0.21654772947721 0.43962044553590 0.44565881578037 
C23   C     0.49668245158710 0.30434916366731 0.99456985312495 
C24   C     0.18361969159827 0.37636248010538 0.39407867615551 
C25   C     0.57211207473363 0.15670867557084 0.99189367626213 
C26   C     0.13673245137645 0.23387006816515 0.41658324704129 
C27   C     0.59470844266714 0.09208562364670 0.92942169015487 
C28   C     0.12261473873023 0.16100931667543 0.48920353768506 
C29   C     0.67484268842175 0.27533110231357 0.39682070148615 
C30   C     0.01178148521772 0.27273039473598 0.00788864477715 
C31   C     0.61976046345680 0.03609522754956 0.73311965803719 
C32   C     0.10347225753458 0.07665307444630 0.69624770912234 
C33   C     0.94553328229906 0.36191414776598 0.81299714801093 
C34   C     0.62565367512937 0.04622438397222 0.60629529790924 
C35   C     0.10760685158593 0.06751459886494 0.82248771290424 
C36   C     0.65509120562822 0.13492575903019 0.40309059432454 
C37   C     0.08259260691677 0.12723337069565 0.01516121961908 
C38   C     0.67633402455612 0.20932813307275 0.33465545424983 
C39   C     0.05253931844024 0.19281158427894 0.07568182875190 
C40   C     0.88770948629307 0.42702130393844 0.87655832922057 
C41   C     0.95525751386587 0.34072979026902 0.07057282427884 
C42   C     0.89796738864566 0.41712563749946 0.00614859439745 
H1    H     0.64452488653461 0.31825061021978 0.57155475593092 
H2    H     0.70341502740148 0.33276272928916 0.34393345807454 
H3    H     0.39148852201906 0.52708702177412 0.78503592985786 
H4    H     0.30280737437936 0.55081143097142 0.56687463251724 
H5    H     0.45905018099555 0.43333901339218 0.97938180476433 
H6    H     0.21032963799577 0.50005008574562 0.39190446878292 
H7    H     0.52023335249700 0.29293681313276 0.09298128501609 
H8    H     0.15740966947814 0.38418785019575 0.29626366790176 
H9    H     0.58948639886006 0.14758249122795 0.09116701855979 
H10   H     0.12782080259449 0.24213503077611 0.31654194165530 
H11   H     0.62519372771157 0.03038870516797 0.97863387694795 
H12   H     0.10450034843311 0.10937850837779 0.44807055902284 
H13   H     0.63414931349856 0.97560992441764 0.78788481243346 
H14   H     0.09370937433457 0.02571986148930 0.65070139540939 
H15   H     0.93199377485322 0.37013219100451 0.71364905732257 
H16   H     0.64028609769050 0.99429317563193 0.55787666301471 
H17   H     0.11125910281621 0.00819580695354 0.87959431152886 
H18   H     0.66414388899782 0.08226110584324 0.35697023093393 
H19   H     0.10057630999958 0.06614389514081 0.06750893485361 
H20   H     0.70228660413201 0.21614624874196 0.23373868795428 
H21   H     0.04903151928828 0.18464477637653 0.17674366885165 
H22   H     0.83189331975817 0.48627753775989 0.82632014518112 
H23   H     0.95426436412361 0.33141549000460 0.17166423814483 
H24   H     0.85725366987250 0.46902015099483 0.05520762913548 
