data_stdin
_audit_creation_method 'critic2'
_audit_creation_date 2023-8-11
_chemical_formula_sum 'C42 H24'
_cell_formula_units_Z 2
_cell_length_a         9.9207736670
_cell_length_b        15.7507234197
_cell_length_c        10.0410725099
_cell_angle_alpha       104.2223
_cell_angle_beta       119.2022
_cell_angle_gamma        79.0499
_cell_volume          1323.054791
_space_group_crystal_system triclinic
_space_group_IT_number 2
_space_group_name_H-M_alt 'P-1'
_space_group_name_Hall '-P 1'
loop_
_symmetry_equiv_pos_site_id
_symmetry_equiv_pos_as_xyz
 1 'x,y,z'
 2 '-x,-y,-z'
loop_
_atom_site_label
_atom_site_type_symbol
_atom_site_fract_x
_atom_site_fract_y
_atom_site_fract_z
C1    C     0.62760823284137 0.29069258543164 0.61186559372137 
C2    C     0.49215296277551 0.25075960804800 0.48449149101540 
C3    C     0.73905368318198 0.32867356439248 0.59485289647331 
C4    C     0.47957952071687 0.21026329980404 0.33370031117767 
C5    C     0.70646546509427 0.36369702741789 0.46070468499923 
C6    C     0.61004090383487 0.17327897316499 0.30499465495603 
C7    C     0.55309039282436 0.39400648393678 0.34990984614740 
C8    C     0.75863541149314 0.14079254808501 0.41855859105244 
C9    C     0.65133480067820 0.29337925550013 0.76449134207647 
C10   C     0.36232115902802 0.25169310649546 0.50917307263954 
C11   C     0.89085245768696 0.33477798183892 0.72322804766747 
C12   C     0.32821739844194 0.20681440394795 0.20527981112454 
C13   C     0.83422174735266 0.37710222580579 0.44268078221405 
C14   C     0.58872703620023 0.16657791753695 0.15166411302163 
C15   C     0.42491341593925 0.41589462194961 0.38148931227704 
C16   C     0.78233022896565 0.10852283149182 0.55266452742670 
C17   C     0.53188773423621 0.41217810014086 0.20781244519097 
C18   C     0.88831787779970 0.13231977521761 0.39049039590505 
C19   C     0.52585627447531 0.28082310628452 0.78719419784275 
C20   C     0.38233103942030 0.26752340740396 0.66359564802033 
C21   C     0.80031374509054 0.30827640403496 0.89308760502226 
C22   C     0.21390983778827 0.23708721040974 0.37915243885946 
C23   C     0.91922143287423 0.32198627958205 0.87067723707031 
C24   C     0.19611110150000 0.22159861810956 0.23150095529432 
C25   C     0.01354455948864 0.35673949366922 0.70611790341889 
C26   C     0.30978651854345 0.18937192763668 0.05159471496798 
C27   C     0.98744179808050 0.37268343614776 0.56720515946432 
C28   C     0.43665845214065 0.17571694439885 0.02678709917857 
C29   C     0.28138982028316 0.44590855772466 0.27412726703847 
C30   C     0.93697581895887 0.09253474019544 0.67068907390945 
C31   C     0.80940491349364 0.39823486640050 0.30146380558607 
C32   C     0.71940786037290 0.14978084867500 0.12333777043654 
C33   C     0.66051927194579 0.08325016834414 0.56637607779298 
C34   C     0.66328477564935 0.41020445613933 0.18433610510053 
C35   C     0.86554324949249 0.13904536682940 0.24182810010245 
C36   C     0.38232143144059 0.43920153070963 0.09673826450814 
C37   C     0.04098774233159 0.11235900266192 0.50793177453273 
C38   C     0.25817633814108 0.45530553430807 0.12834811483005 
C39   C     0.06537386712334 0.09787392683829 0.64675953255142 
C40   C     0.68751598460101 0.05216034522988 0.69533472740007 
C41   C     0.96125875172569 0.06375938824915 0.80424645254967 
C42   C     0.83883234997025 0.04475401624232 0.81796718486594 
H1    H     0.44090442578732 0.41240944480485 0.49483708875259 
H2    H     0.18682710494147 0.46414920896340 0.30425476527089 
H3    H     0.54509267621680 0.28596298327986 0.90521702491973 
H4    H     0.28288820008716 0.26456717266279 0.68033923749481 
H5    H     0.81810967263552 0.30559023574355 0.00801825204935 
H6    H     0.11461876103615 0.24224858429464 0.40002533206685 
H7    H     0.03579126401679 0.32845796529926 0.96674167968061 
H8    H     0.08168444729439 0.21646497140460 0.13131800023274 
H9    H     0.12868051221231 0.35921716054603 0.80544904093533 
H10   H     0.19304011370774 0.19064165198722 0.95534232118018 
H11   H     0.08206323320387 0.38675132076764 0.55210573275948 
H12   H     0.42369180506651 0.16798395023787 0.91035828694840 
H13   H     0.91062372993981 0.40418390867759 0.28957101908737 
H14   H     0.70085547834345 0.14738904592439 0.00625768016995 
H15   H     0.54320482192260 0.08711734351789 0.47264997524572 
H16   H     0.64487167340778 0.42379823481760 0.07518526945238 
H17   H     0.96627629434181 0.12941458913239 0.22196974197112 
H18   H     0.36851459246249 0.44978053839504 0.98731745199116 
H19   H     0.13767076832574 0.10697110200551 0.48274207806403 
H20   H     0.14485941369805 0.47873672424536 0.04398217292471 
H21   H     0.18202022609848 0.08239211970742 0.73551252159546 
H22   H     0.59105610044647 0.03313734113981 0.70156804341460 
H23   H     0.08015152300936 0.05352178741727 0.89334608931416 
H24   H     0.85891129976935 0.02147719045434 0.92010317593694 
