data_stdin
_audit_creation_method 'critic2'
_audit_creation_date 2023-8-11
_chemical_formula_sum 'C42 H24'
_cell_formula_units_Z 2
_cell_length_a        12.2618763607
_cell_length_b         9.7261234943
_cell_length_c        13.2868202140
_cell_angle_alpha        89.5511
_cell_angle_beta        75.6558
_cell_angle_gamma        60.5803
_cell_volume          1324.995060
_space_group_crystal_system triclinic
_space_group_IT_number 2
_space_group_name_H-M_alt 'P-1'
_space_group_name_Hall '-P 1'
loop_
_symmetry_equiv_pos_site_id
_symmetry_equiv_pos_as_xyz
 1 'x,y,z'
 2 '-x,-y,-z'
loop_
_atom_site_label
_atom_site_type_symbol
_atom_site_fract_x
_atom_site_fract_y
_atom_site_fract_z
C1    C     0.58103438376296 0.65457660919197 0.26008462346532 
C2    C     0.65662549005515 0.71024486978701 0.29521858194307 
C3    C     0.61565082966073 0.48937168288436 0.24739009631119 
C4    C     0.79433462872436 0.61225800981055 0.28488128201673 
C5    C     0.69153208719306 0.36999979274176 0.30535174922721 
C6    C     0.88369854565096 0.47339045064140 0.20727973453444 
C7    C     0.70034598858338 0.40441444615761 0.40823743285327 
C8    C     0.87047799657973 0.44844327690422 0.10468609359678 
C9    C     0.46553448595011 0.76962414309287 0.23600834286301 
C10   C     0.59195341850196 0.87136895920316 0.34226105739725 
C11   C     0.56885715560694 0.44281748395434 0.17385028376172 
C12   C     0.84491770834894 0.65507987052600 0.35679959907909 
C13   C     0.75281130944656 0.20728876839959 0.26316510006092 
C14   C     0.99543764206664 0.35349106834782 0.23422398035216 
C15   C     0.60976327291309 0.54980118678177 0.47502229406998 
C16   C     0.79712414747744 0.57535077591498 0.04891616658772 
C17   C     0.79555899059326 0.28098817745444 0.45007242739893 
C18   C     0.94229802293349 0.29034957444146 0.05108538877080 
C19   C     0.40953468269456 0.93367276469513 0.27344952288829 
C20   C     0.46635017050340 0.98148312524490 0.33094160605653 
C21   C     0.40904769384057 0.71911450138044 0.17377192359525 
C22   C     0.65324005064766 0.91993351759434 0.40055059347549 
C23   C     0.46600797718411 0.56137969267649 0.13674997755398 
C24   C     0.77130591738267 0.81098900281874 0.41439064368243 
C25   C     0.62299217649824 0.27811129490865 0.13986919989722 
C26   C     0.96815024065874 0.54151609772383 0.37059318361885 
C27   C     0.71850456534907 0.16437944861192 0.17849707188666 
C28   C     0.03499965672025 0.39069128081784 0.31742275130711 
C29   C     0.61930202246837 0.57698677406049 0.57356083382517 
C30   C     0.77609617018838 0.53654411812242 0.95434282262517 
C31   C     0.84605194996497 0.08647625456642 0.30760827139644 
C32   C     0.06831807015514 0.19848706956870 0.17625085180856 
C33   C     0.75243723817792 0.73784394343341 0.07864381679338 
C34   C     0.87173079625679 0.12333912426860 0.39459846414690 
C35   C     0.03731876146026 0.16551369628746 0.09119001885537 
C36   C     0.80670620940029 0.31403327591300 0.54944291468940 
C37   C     0.92369833705123 0.25639833499731 0.95441236683208 
C38   C     0.72131658524667 0.46031263826104 0.60990067695975 
C39   C     0.83968643392817 0.37409058875324 0.90950274107224 
C40   C     0.67708257907963 0.85619852903943 0.02714887575584 
C41   C     0.69763920617676 0.66029826794529 0.90334240409072 
C42   C     0.64534262550505 0.81816934878811 0.94059062391613 
H1    H     0.52793456372559 0.63920588965142 0.44995312342493 
H2    H     0.54506141220503 0.68720725391771 0.62466171410399 
H3    H     0.31814043381567 0.01983842709970 0.25830047183754 
H4    H     0.41847303270724 0.10475759686532 0.36647458956715 
H5    H     0.32331726844408 0.80863404613385 0.15238815896537 
H6    H     0.60216499589734 0.04275439124549 0.43779963696335 
H7    H     0.42952999980229 0.52319358718506 0.08253334989180 
H8    H     0.81324466890253 0.84428658639128 0.46627997601415 
H9    H     0.58836182272881 0.24591022714702 0.08105513010078 
H10   H     0.00495448615208 0.57459285754982 0.42717077045818 
H11   H     0.76501523599413 0.03846743636046 0.14926775990206 
H12   H     0.12356210677048 0.29884681880573 0.33399841215243 
H13   H     0.89586611180852 0.96362078118137 0.27054036827343 
H14   H     0.14875577387667 0.10622483689077 0.20169169370074 
H15   H     0.78027514509020 0.76964156778507 0.14216928287354 
H16   H     0.94520457715937 0.03119430033793 0.42667745681008 
H17   H     0.09098445221080 0.04560936073247 0.04847093100883 
H18   H     0.88147913291153 0.21956959135271 0.57926033703617 
H19   H     0.97844953170180 0.13310715120843 0.91716189990258 
H20   H     0.72965869977713 0.48290128268923 0.68689182906379 
H21   H     0.82440740218463 0.34649228249405 0.83662958632778 
H22   H     0.64400080600130 0.97980650015757 0.05259271697541 
H23   H     0.68115427588390 0.62849389207026 0.83237104454685 
H24   H     0.58499574598350 0.91228221073209 0.90093716362995 
