data_stdin
_audit_creation_method 'critic2'
_audit_creation_date 2023-8-11
_chemical_formula_sum 'C42 H24'
_cell_formula_units_Z 1
_cell_length_a        10.0414008292
_cell_length_b         9.9718734865
_cell_length_c         7.6600985752
_cell_angle_alpha        97.2620
_cell_angle_beta        94.9107
_cell_angle_gamma        60.3212
_cell_volume           660.815482
_space_group_crystal_system triclinic
_space_group_IT_number 1
_space_group_name_H-M_alt 'P1'
_space_group_name_Hall 'P 1'
loop_
_symmetry_equiv_pos_site_id
_symmetry_equiv_pos_as_xyz
 1 'x,y,z'
loop_
_atom_site_label
_atom_site_type_symbol
_atom_site_fract_x
_atom_site_fract_y
_atom_site_fract_z
C1    C     0.00159385361404 0.00331378514054 0.99783017302211 
C2    C     0.11895144441531 0.85774423936835 0.91658309216228 
C3    C     0.86302644507810 0.02561136715853 0.07143665592368 
C4    C     0.09255156111285 0.73374780301820 0.83550900698236 
C5    C     0.84607403047665 0.90679181723440 0.14175466900111 
C6    C     0.94659956380002 0.75465260939315 0.76183100125442 
C7    C     0.97184621697760 0.76651336236330 0.20628699525076 
C8    C     0.82569907462197 0.89510916708172 0.69406061233300 
C9    C     0.02499491840024 0.13373315475468 0.00636599431197 
C10   C     0.27081118875514 0.83453881090136 0.91773682143346 
C11   C     0.73505659682057 0.17904427573807 0.08046629633737 
C12   C     0.21959229221654 0.58041934593086 0.82951269163629 
C13   C     0.69475135733372 0.93504866148066 0.16442618143496 
C14   C     0.92235593933482 0.62438373363492 0.75230933009021 
C15   C     0.12065913904053 0.74619680650858 0.24736446133319 
C16   C     0.84829356394419 0.01336374229536 0.62982656432255 
C17   C     0.94311935896132 0.64738399487530 0.24847390037949 
C18   C     0.67543986940347 0.91361708082379 0.67564138656577 
C19   C     0.17442231575165 0.11088725624790 0.98307213910084 
C20   C     0.29574251540446 0.96431060568408 0.95272820948933 
C21   C     0.89870164521797 0.28621928295972 0.03665755570971 
C22   C     0.39644730164118 0.68148733439795 0.88546613210309 
C23   C     0.75580063346836 0.30724822964404 0.05884759922936 
C24   C     0.37146083219971 0.55739914831028 0.85578687675169 
C25   C     0.58714259551527 0.20559073185592 0.11757397291182 
C26   C     0.19402376853542 0.45106927686230 0.79897592111567 
C27   C     0.56653595292313 0.08514338762463 0.14799153806101 
C28   C     0.04820000148471 0.47371803252187 0.77390650088560 
C29   C     0.23772504445672 0.61117619461610 0.30844361777070 
C30   C     0.71748854004836 0.15797037621840 0.59297889000698 
C31   C     0.67002199074432 0.81529811369519 0.21193077689133 
C32   C     0.77260651366003 0.64381926207504 0.71828187138784 
C33   C     0.99320692870781 0.98881167915149 0.58539359298575 
C34   C     0.78981363568726 0.67362503264756 0.24412122298563 
C35   C     0.65139660684832 0.78663694603065 0.69142574229343 
C36   C     0.06571115216400 0.50831624437716 0.30604487691572 
C37   C     0.54769422049270 0.05818793911822 0.63446595973462 
C38   C     0.21169873232056 0.48850411083580 0.33263414030280 
C39   C     0.56732530935391 0.17873536775286 0.60289476950803 
C40   C     0.00984836221590 0.10376111161001 0.52304104726070 
C41   C     0.73757095725499 0.27581717523614 0.53481364123677 
C42   C     0.88169524851550 0.25039612001540 0.50226204352772 
H1    H     0.14246649669194 0.84060342049416 0.23495402705874 
H2    H     0.35013112127498 0.60102342079040 0.33967571761540 
H3    H     0.19045346971550 0.21215950555498 0.99726818538420 
H4    H     0.41202824238969 0.94488921945789 0.94738059519846 
H5    H     0.91749347268459 0.38462820365678 0.03538218533728 
H6    H     0.51228636066237 0.66532884826884 0.89383902296885 
H7    H     0.65651535963320 0.42325168772020 0.07092909919744 
H8    H     0.46705576531180 0.43927722026011 0.84502073335029 
H9    H     0.49079969873269 0.32327208672773 0.11994572226638 
H10   H     0.29228169527104 0.33503594878625 0.80309253108346 
H11   H     0.45279655324683 0.10417534654027 0.17172708250859 
H12   H     0.02623557819203 0.37632058056121 0.76099046750352 
H13   H     0.55221477730028 0.84057270926500 0.22349774230889 
H14   H     0.75719569451268 0.54296947863164 0.71726236989855 
H15   H     0.09296615620537 0.87547308146760 0.59484203604912 
H16   H     0.76985095400088 0.58253222574279 0.27877659884251 
H17   H     0.53550209061674 0.80373295905977 0.67115482139175 
H18   H     0.04179096841669 0.41808409169857 0.33426467455479 
H19   H     0.43367578299037 0.06956235432458 0.62911544667944 
H20   H     0.30448241180135 0.38093809973303 0.37708217105536 
H21   H     0.46953942874821 0.28979059024718 0.57492100315005 
H22   H     0.12296768317798 0.07968680524409 0.48762528512371 
H23   H     0.63581276763891 0.38565632515744 0.51040482047126 
H24   H     0.89566187987274 0.34077313161615 0.45450605143081 
