data_stdin
_audit_creation_method 'critic2'
_audit_creation_date 2023-8-11
_chemical_formula_sum 'C42 H24'
_cell_formula_units_Z 2
_cell_length_a        10.6462498904
_cell_length_b        13.4942575100
_cell_length_c        10.2002026304
_cell_angle_alpha        90.0000
_cell_angle_beta        65.2359
_cell_angle_gamma        90.0000
_cell_volume          1330.637158
_space_group_crystal_system monoclinic
_space_group_IT_number 4
_space_group_name_H-M_alt 'P2_1'
_space_group_name_Hall 'P 2yb'
loop_
_symmetry_equiv_pos_site_id
_symmetry_equiv_pos_as_xyz
 1 'x,y,z'
 2 '-x,-1/2+y,-z'
loop_
_atom_site_label
_atom_site_type_symbol
_atom_site_fract_x
_atom_site_fract_y
_atom_site_fract_z
C1    C     0.22364818373166 0.00343474731136 0.85222455703757 
C2    C     0.12926148370178 0.08521109472696 0.87726657770779 
C3    C     0.24467947949406 0.95093174324012 0.96493600819320 
C4    C     0.08617238596458 0.14976148467673 0.00116737405946 
C5    C     0.14279779480331 0.94146545742259 0.11254059876069 
C6    C     0.16751550270303 0.16946734457172 0.08135695105189 
C7    C     0.99423133488479 0.94797314798828 0.15753372070708 
C8    C     0.31596911014264 0.15816148975369 0.02445953719206 
C9    C     0.30131746171969 0.97318642458927 0.70687111036848 
C10   C     0.07581668470547 0.10383625076168 0.77319538087377 
C11   C     0.37454268299705 0.90235303364512 0.92551752193821 
C12   C     0.95585503481838 0.19756045136519 0.04519419408884 
C13   C     0.18991099551362 0.91400407742229 0.21899611336173 
C14   C     0.09630652610911 0.20367945043872 0.22624852193164 
C15   C     0.93044214215618 0.93955085234380 0.06074528782453 
C16   C     0.40899300745063 0.16480496561321 0.87246774532205 
C17   C     0.90480069931550 0.95265117129638 0.30831535440888 
C18   C     0.37630067475307 0.14608395975166 0.12411549800301 
C19   C     0.25853586845949 0.00395552451937 0.59828423114825 
C20   C     0.14227587315656 0.06068298194526 0.63330494462158 
C21   C     0.42059551763800 0.91267139273817 0.67200315164781 
C22   C     0.95681562228830 0.16527219939094 0.81098570458198 
C23   C     0.46188543963589 0.88510377788263 0.77700194028523 
C24   C     0.89178087738349 0.20304500614846 0.94760002732083 
C25   C     0.41478922260672 0.86879676025575 0.03453778684192 
C26   C     0.89268100386300 0.24133206729173 0.18489080682936 
C27   C     0.32822582306659 0.88046497176517 0.17723441342826 
C28   C     0.95745692110425 0.23825479517340 0.27587311866628 
C29   C     0.78857470446784 0.94551725331329 0.10794851725151 
C30   C     0.54862605387031 0.13130398140347 0.82536316365124 
C31   C     0.09683103671377 0.91541942520068 0.36830797909940 
C32   C     0.16461058954761 0.20274748073632 0.32015983506015 
C33   C     0.37176573609720 0.21051971179560 0.76884270279717 
C34   C     0.96065320933811 0.93941290864231 0.41219634962875 
C35   C     0.29695171100792 0.16744600405586 0.27316861642943 
C36   C     0.76021932996760 0.96269901394143 0.35371431296632 
C37   C     0.51733162775950 0.11566329763436 0.07366401672795 
C38   C     0.70251801663470 0.96080429060505 0.25522514629192 
C39   C     0.59786365369342 0.10230045191686 0.92993967951728 
C40   C     0.46244606021999 0.21391005496674 0.62450417310910 
C41   C     0.63859467482280 0.13384205932881 0.67647015682451 
C42   C     0.59603693888999 0.17290546929151 0.57648405479788 
H1    H     0.99359573220617 0.92491914624969 0.94744449826741 
H2    H     0.74303183515177 0.93654609403215 0.03095383831584 
H3    H     0.31717641709930 0.97824366195645 0.48795482415295 
H4    H     0.10262591630578 0.07678805101077 0.55307048774953 
H5    H     0.48048738486627 0.89239747436072 0.55952409184019 
H6    H     0.91543836783487 0.17867154584563 0.73130066493076 
H7    H     0.55876782475509 0.84550048791018 0.75014285414419 
H8    H     0.79386956013227 0.24210280099009 0.98123336621756 
H9    H     0.51597025936798 0.83453881338056 0.00211801814860 
H10   H     0.79093076255034 0.27505320065605 0.21855521368329 
H11   H     0.36080883860919 0.85750736110315 0.26067806613174 
H12   H     0.90589266876205 0.26561766664044 0.38622590946608 
H13   H     0.13755364266354 0.89756322526178 0.44715378937683 
H14   H     0.10799234591100 0.22803179007293 0.43106370204004 
H15   H     0.27104048278839 0.24520196199098 0.80339858290635 
H16   H     0.89117776888244 0.94250961690984 0.52671160359192 
H17   H     0.34568215096328 0.15954935468384 0.34767734102281 
H18   H     0.69501330758527 0.96969095936645 0.46881651225981 
H19   H     0.55961237248456 0.10273391545517 0.15269946775404 
H20   H     0.59093206538653 0.96660063773969 0.29123044000794 
H21   H     0.70387390943116 0.07619124347397 0.89327672913776 
H22   H     0.42940565514843 0.24874682957733 0.54792820894137 
H23   H     0.74377527559388 0.10595443292825 0.64212154359468 
H24   H     0.66595890342934 0.17352668393733 0.46223538725395 
