data_stdin
_audit_creation_method 'critic2'
_audit_creation_date 2023-8-11
_chemical_formula_sum 'C42 H24'
_cell_formula_units_Z 4
_cell_length_a        10.0299267235
_cell_length_b        18.1325823800
_cell_length_c        14.6685047390
_cell_angle_alpha        90.0000
_cell_angle_beta        85.9769
_cell_angle_gamma        89.9993
_cell_volume          2661.164908
_space_group_crystal_system monoclinic
_space_group_IT_number 14
_space_group_name_H-M_alt 'P2_1/c'
_space_group_name_Hall '-P 2ybc'
loop_
_symmetry_equiv_pos_site_id
_symmetry_equiv_pos_as_xyz
 1 'x,y,z'
 2 '-x,-y,-z'
 3 '-x,-1/2+y,-1/2-z'
 4 'x,-1/2-y,-1/2+z'
loop_
_atom_site_label
_atom_site_type_symbol
_atom_site_fract_x
_atom_site_fract_y
_atom_site_fract_z
C1    C     0.15677249762606 0.26983845887848 0.30011780584297 
C2    C     0.28982917007504 0.28856626382366 0.26347500685635 
C3    C     0.11074473018780 0.19539790886035 0.31824355783628 
C4    C     0.37552915878190 0.23971416659164 0.20795082590079 
C5    C     0.19549582480546 0.13369974903103 0.33826890531649 
C6    C     0.32861063763932 0.17980780381780 0.15320106127055 
C7    C     0.32448243883710 0.13983066636153 0.37727000105692 
C8    C     0.19835760571944 0.17607035082806 0.11671626084527 
C9    C     0.06573360479407 0.32883441080138 0.31977849369773 
C10   C     0.33995294752549 0.35959589660310 0.28421863288099 
C11   C     0.97030254019014 0.18283096473104 0.31873994329923 
C12   C     0.51592197010181 0.25144877894542 0.20754105939046 
C13   C     0.14369457577201 0.06155379625906 0.32643070093266 
C14   C     0.41933244090637 0.12048923034542 0.13226093363362 
C15   C     0.36977822469876 0.20491195184691 0.41888737419014 
C16   C     0.11740623724120 0.23981161281360 0.09686985631052 
C17   C     0.40532151180027 0.07521836717496 0.38385656778978 
C18   C     0.15084145693659 0.10558177832813 0.09122470061203 
C19   C     0.11527494003396 0.40201844402358 0.32739393108840 
C20   C     0.24956847771658 0.41582098766630 0.31706206517159 
C21   C     0.92631948535453 0.31401636686819 0.33253246817553 
C22   C     0.47978569801582 0.37353941060091 0.27207523801415 
C23   C     0.87988804061711 0.24351084521049 0.32538270019182 
C24   C     0.56585342536651 0.31923983320509 0.24058686327737 
C25   C     0.92008175097761 0.10960610157349 0.31490563579036 
C26   C     0.60590557810452 0.19501079578792 0.17514084775676 
C27   C     0.00594726506469 0.05099152842269 0.31230240926168 
C28   C     0.55792298017793 0.12945532373194 0.14499137270711 
C29   C     0.49162267284403 0.20796853862147 0.45740372961478 
C30   C     0.98282107381962 0.22880113437002 0.07327702861095 
C31   C     0.22765257530891 0.99847112875618 0.33319045372838 
C32   C     0.37163625888454 0.05270901745078 0.09795319611570 
C33   C     0.16852655850543 0.31259427825370 0.08994738587911 
C34   C     0.35543509756985 0.00513630233431 0.35835600033494 
C35   C     0.23902731052506 0.04399823209028 0.08455692326712 
C36   C     0.53122785814071 0.07989540778827 0.42154098913360 
C37   C     0.01581086691777 0.09678636389630 0.06827783584298 
C38   C     0.57487188084523 0.14538636397322 0.45696041403911 
C39   C     0.93269723413633 0.15587559044657 0.06331092485038 
C40   C     0.09024019979567 0.37126795637327 0.06605728685545 
C41   C     0.90304434541466 0.29011287572886 0.05306114438361 
C42   C     0.95513374886844 0.36054971519713 0.04939479244612 
H1    H     0.30553130121170 0.25300268724358 0.42401477036771 
H2    H     0.52133431566105 0.25880750762367 0.48997073938698 
H3    H     0.04446453805403 0.44609902891418 0.34506358627207 
H4    H     0.28901760321068 0.47055525413598 0.32977116640459 
H5    H     0.85780815922979 0.36010542175952 0.34553452830896 
H6    H     0.51715337703682 0.42745870028857 0.29073621700987 
H7    H     0.77308687626885 0.23186290604381 0.33024205609892 
H8    H     0.67360666951614 0.32782695447837 0.23640092258957 
H9    H     0.81266337387706 0.10160258745482 0.31244188082268 
H10   H     0.71270179928801 0.20405150689757 0.17863489147426 
H11   H     0.96927851099697 0.99493168947128 0.30503532477773 
H12   H     0.62552607084132 0.08390573912336 0.12669354037089 
H13   H     0.18586027689948 0.94453387616551 0.31909955674077 
H14   H     0.44223811803050 0.00760230812809 0.08482735366457 
H15   H     0.27318670345312 0.32237822669646 0.09953087162407 
H16   H     0.41870069434146 0.95684970320789 0.36425622768011 
H17   H     0.20033034806271 0.99092299599668 0.06349715713095 
H18   H     0.59099988790738 0.02986172769872 0.42487897026427 
H19   H     0.98065478795481 0.04135237560657 0.05439795275410 
H20   H     0.67083950617006 0.14766889352996 0.48701604245928 
H21   H     0.82962642012460 0.14886120434927 0.04593660709575 
H22   H     0.13470689115385 0.42586779980205 0.05799590707588 
H23   H     0.80084520458744 0.27952455350085 0.03616874735018 
H24   H     0.89452256612880 0.40705037531459 0.03019806552739 
