data_stdin
_audit_creation_method 'critic2'
_audit_creation_date 2023-8-11
_chemical_formula_sum 'C42 H24'
_cell_formula_units_Z 4
_cell_length_a        14.4176797000
_cell_length_b        18.4148367200
_cell_length_c         9.9983172815
_cell_angle_alpha        89.9989
_cell_angle_beta        90.0000
_cell_angle_gamma        90.0000
_cell_volume          2654.545415
_space_group_crystal_system orthorhombic
_space_group_IT_number 33
_space_group_name_H-M_alt 'Pna2_1'
_space_group_name_Hall 'P 2c -2n'
loop_
_symmetry_equiv_pos_site_id
_symmetry_equiv_pos_as_xyz
 1 'x,y,z'
 2 '-x,-y,-1/2+z'
 3 '-1/2-x,-1/2+y,-1/2+z'
 4 '-1/2+x,-1/2-y,z'
loop_
_atom_site_label
_atom_site_type_symbol
_atom_site_fract_x
_atom_site_fract_y
_atom_site_fract_z
C1    C     0.53381648410351 0.67964876912623 0.96422242547765 
C2    C     0.49080401258204 0.68109777925742 0.09461705672464 
C3    C     0.55427402734300 0.74364417405382 0.88580625699719 
C4    C     0.43144302829878 0.73883786229915 0.14178254568860 
C5    C     0.56887934456642 0.81532139287005 0.94056370106424 
C6    C     0.37697213126915 0.78501945205152 0.05559755589607 
C7    C     0.60144587863589 0.82933242152669 0.07535630640156 
C8    C     0.34409812206861 0.76430922429054 0.92466033199803 
C9    C     0.55890530356823 0.61085882037508 0.91073560871673 
C10   C     0.50869832541337 0.62233077991026 0.18290734566534 
C11   C     0.56295747116234 0.73481680281159 0.74483816155330 
C12   C     0.42681457114245 0.75082528690687 0.28201246567291 
C13   C     0.55820286575676 0.87594795410040 0.85412825419325 
C14   C     0.35296818332082 0.85524031261948 0.10460117362392 
C15   C     0.64678520878800 0.77617014805718 0.15424842164050 
C16   C     0.32793419061862 0.68993932876222 0.88311543395496 
C17   C     0.59655429443610 0.90156338325822 0.12743646324165 
C18   C     0.31938626711259 0.82043200693260 0.83406093708605 
C19   C     0.56360137835391 0.54943502634469 0.99715015967608 
C20   C     0.54527294371893 0.55623790070642 0.13087676117118 
C21   C     0.57979543892477 0.60449248021677 0.77195867496881 
C22   C     0.49057873149838 0.63085597222085 0.32229870980540 
C23   C     0.57484749421834 0.66391664338548 0.69018500941434 
C24   C     0.45741754393013 0.69529163684648 0.37110633831706 
C25   C     0.56243273883602 0.79696129442751 0.66017820049271 
C26   C     0.39219354665155 0.81829371607447 0.33091816787641 
C27   C     0.55347850795607 0.86507944178624 0.71327173318502 
C28   C     0.36279869897843 0.87075474808117 0.24358085375311 
C29   C     0.67731726087560 0.79137234422264 0.28225233778384 
C30   C     0.31249000328017 0.67487479666899 0.74463134778648 
C31   C     0.55579432186946 0.94768079070782 0.90837507422459 
C32   C     0.31890374446627 0.90870967686720 0.01419228039457 
C33   C     0.31780138333905 0.63178596976874 0.97478456858654 
C34   C     0.56924157358516 0.95974647013963 0.04170420967448 
C35   C     0.30873185066937 0.89287373544679 0.88129796930468 
C36   C     0.62530486846294 0.91522575973325 0.26049932065468 
C37   C     0.30224116672770 0.80358673902703 0.69694465785223 
C38   C     0.66398849247127 0.86092700585435 0.33777718396563 
C39   C     0.30351471717387 0.73355048648564 0.65232243788428 
C40   C     0.30206312777745 0.56165404198885 0.93150827447798 
C41   C     0.29985504740118 0.60219062784709 0.70237724093260 
C42   C     0.29562365706046 0.54617890310119 0.79393599003331 
H1    H     0.66042227104791 0.72292904728635 0.11208985982188 
H2    H     0.71282009623510 0.74921928595196 0.33889043169661 
H3    H     0.58668139413534 0.49778160708854 0.95577110985041 
H4    H     0.55564021166016 0.51064956670814 0.19843713121774 
H5    H     0.59665395434346 0.55108717537781 0.73172633279767 
H6    H     0.50841798882106 0.58639954763362 0.38944623568796 
H7    H     0.58519074563294 0.65870095921440 0.58272118710383 
H8    H     0.45018804102579 0.70407867267077 0.47822949673046 
H9    H     0.56766687140886 0.78922502138995 0.55246553748886 
H10   H     0.39378161579578 0.82822635607730 0.43832280991203 
H11   H     0.54886320847816 0.91250398470052 0.64843168492563 
H12   H     0.34330449388234 0.92441982249521 0.27964818823975 
H13   H     0.54243096851723 0.99282558571190 0.84064638430223 
H14   H     0.30347020938014 0.96279939718531 0.05231823589866 
H15   H     0.31934485929429 0.64283848658245 0.08134415979890 
H16   H     0.56582520651523 0.01452869072966 0.08273951545107 
H17   H     0.28684069320461 0.93442729266338 0.81052017096170 
H18   H     0.61783413057568 0.96998210230274 0.30029799844139 
H19   H     0.28731148299376 0.84823797485564 0.62872004908453 
H20   H     0.68589285149282 0.87228935246168 0.43989878830470 
H21   H     0.29175700753190 0.72115558772743 0.54719596221129 
H22   H     0.29298367076329 0.51842008468993 0.00465408985526 
H23   H     0.29153440256992 0.59147820027169 0.59580223305229 
H24   H     0.28549160269912 0.49055903938233 0.76024646311126 
