data_stdin
_audit_creation_method 'critic2'
_audit_creation_date 2023-8-11
_chemical_formula_sum 'C22 H14'
_cell_formula_units_Z 12
_cell_length_a        25.9382266494
_cell_length_b         8.8287088101
_cell_length_c        19.3202377886
_cell_angle_alpha        89.9993
_cell_angle_beta       103.8830
_cell_angle_gamma        90.0003
_cell_volume          4295.108878
_space_group_crystal_system monoclinic
_space_group_IT_number 15
_space_group_name_H-M_alt 'C2/c'
_space_group_name_Hall '-C 2yc'
loop_
_symmetry_equiv_pos_site_id
_symmetry_equiv_pos_as_xyz
 1 'x,y,z'
 2 '-x,-y,-z'
 3 '-1/2-x,y,-z'
 4 '-1/2+x,-y,z'
 5 'x,-1/2+y,-1/2+z'
 6 '-x,-1/2-y,-1/2-z'
 7 '-1/2-x,-1/2+y,-1/2-z'
 8 '-1/2+x,-1/2-y,-1/2+z'
loop_
_atom_site_label
_atom_site_type_symbol
_atom_site_fract_x
_atom_site_fract_y
_atom_site_fract_z
C1    C     0.96438881602664 0.13396565466153 0.40046643007929 
C2    C     0.98072955004507 0.25846611733153 0.44343365715787 
C3    C     0.03414194861655 0.27339890412777 0.48134729043016 
C4    C     0.06971163568946 0.15920094355399 0.47763175150839 
C5    C     0.05371917155141 0.02913163280977 0.43498639217801 
C6    C     0.08930576218590 0.90495857209824 0.43775060340498 
C7    C     0.07105031255100 0.76989443412872 0.40711548724059 
C8    C     0.01776652215043 0.75402872710361 0.36595073842977 
C9    C     0.99759779146952 0.60752651116231 0.34386783397181 
C10   C     0.94585679671149 0.58937263247736 0.30735140523344 
C11   C     0.91396879174905 0.71779717879370 0.28109168508927 
C12   C     0.86139399473581 0.69739535051118 0.23797510753924 
C13   C     0.83156817123303 0.81741735470958 0.20651453519260 
C14   C     0.85483377674757 0.96436943016981 0.20937305926951 
C15   C     0.82758645249716 0.08423281196002 0.16688752341864 
C16   C     0.85248079446907 0.22057047716996 0.16157343304661 
C17   C     0.90595384302339 0.24024211775658 0.19853100345830 
C18   C     0.93228981502918 0.12815651796952 0.24325815213400 
C19   C     0.90741259256988 0.98890235341053 0.25229621122570 
C20   C     0.93494216503150 0.86656501846007 0.29636170723925 
C21   C     0.98418453168953 0.88317834904017 0.34986131219061 
C22   C     0.00038788999427 0.01823350461873 0.39243569919392 
H1    H     0.92261293218589 0.12252566628382 0.37398124434989 
H2    H     0.95162270236017 0.34329585737881 0.44924906221151 
H3    H     0.04654284956949 0.37154905491043 0.51538290152424 
H4    H     0.11050384641393 0.16379522501626 0.50958933066018 
H5    H     0.13010855948065 0.91669929450950 0.46871925101344 
H6    H     0.09670449125649 0.67070712888611 0.41420631028048 
H7    H     0.02335731848119 0.50978654755919 0.35950098634935 
H8    H     0.92926286964818 0.47654118197585 0.29508680823606 
H9    H     0.79110300197913 0.80074362271463 0.17523427193719 
H10   H     0.78668784240586 0.06483523849340 0.13731405304876 
H11   H     0.83174112949715 0.31076084795865 0.12756551677249 
H12   H     0.92670816643860 0.34347725639300 0.19055884486222 
H13   H     0.97352116092144 0.14532204989360 0.27100266039895 
H14   H     0.84533708523177 0.58291766383276 0.23002541222292 
C23   C     0.19435097404940 0.60614254141418 0.50464764758543 
C24   C     0.16739320783712 0.48561644704137 0.52511362130772 
C25   C     0.15473885479163 0.48569247198952 0.59215271779922 
C26   C     0.16613997005470 0.61232978467087 0.63508377518829 
C27   C     0.19138373129337 0.74012993738603 0.61355429039895 
C28   C     0.19609489169348 0.87758319609246 0.65337402886364 
C29   C     0.21250023391866 0.00723591717875 0.62657585930793 
C30   C     0.23091845282415 0.00495637379452 0.56251650775568 
C31   C     0.24254738048033 0.14324360572812 0.53166443243713 
C32   C     0.23610736287016 0.86482820718188 0.52821316682356 
C33   C     0.20926059453152 0.73421854460309 0.54905649803717 
H15   H     0.20281628302417 0.60442750070680 0.45232239746405 
H16   H     0.15509316593264 0.39186278129146 0.48823591694774 
H17   H     0.13453178645984 0.38934151131819 0.60897216830666 
H18   H     0.15426437566185 0.61881046387823 0.68540154227487 
H19   H     0.18350725113563 0.87928152798945 0.70314893637118 
H20   H     0.21177355143742 0.11499979510413 0.65392791843699 
H21   H     0.23685544525491 0.24943418232359 0.55749786394833 
