data_stdin
_audit_creation_method 'critic2'
_audit_creation_date 2023-8-11
_chemical_formula_sum 'C22 H14'
_cell_formula_units_Z 4
_cell_length_a         5.7506446099
_cell_length_b        14.1558106702
_cell_length_c        17.2811389884
_cell_angle_alpha        90.0002
_cell_angle_beta        93.6013
_cell_angle_gamma        90.0010
_cell_volume          1403.993786
_space_group_crystal_system monoclinic
_space_group_IT_number 14
_space_group_name_H-M_alt 'P2_1/c'
_space_group_name_Hall '-P 2ybc'
loop_
_symmetry_equiv_pos_site_id
_symmetry_equiv_pos_as_xyz
 1 'x,y,z'
 2 '-x,-y,-z'
 3 '-x,-1/2+y,-1/2-z'
 4 'x,-1/2-y,-1/2+z'
loop_
_atom_site_label
_atom_site_type_symbol
_atom_site_fract_x
_atom_site_fract_y
_atom_site_fract_z
C1    C     0.20355051972631 0.51999947434543 0.12199054542401 
C2    C     0.22950208909428 0.57158155441084 0.05513936733302 
C3    C     0.43887165303984 0.61973824345022 0.04381458284654 
C4    C     0.61433313127415 0.61945990302672 0.10203970120961 
C5    C     0.58863387206736 0.56968157270221 0.17217139928989 
C6    C     0.75775354446939 0.58082682983380 0.23544743009307 
C7    C     0.71616936484461 0.54543903862015 0.30665659373986 
C8    C     0.51573441239457 0.48885226900005 0.31787613787888 
C9    C     0.46780656314148 0.46065648618352 0.39419083161810 
C10   C     0.27121845068615 0.41013155172819 0.40718845262193 
C11   C     0.12935969425425 0.37336494096826 0.34380009380694 
C12   C     0.92930127735642 0.31777753394772 0.35807686765541 
C13   C     0.79585246522492 0.27729744351188 0.29898683807257 
C14   C     0.87240452038960 0.27949801410146 0.22212212466225 
C15   C     0.76026758771632 0.22281658621534 0.16336114291732 
C16   C     0.85404380455403 0.21240685495467 0.09219847583170 
C17   C     0.06634591741243 0.25743696814531 0.07854637264646 
C18   C     0.17422451826824 0.31563465707888 0.13411096573141 
C19   C     0.07669591094419 0.33203688480938 0.20612405860324 
C20   C     0.18840594780277 0.39130782379530 0.26625668806967 
C21   C     0.36225455667494 0.46241256962928 0.25359039517175 
C22   C     0.38446981432069 0.51382912986725 0.18143594023678 
H1    H     0.03851961398588 0.48511156134094 0.12972346396933 
H2    H     0.08569973376437 0.57602884247088 0.01125818279236 
H3    H     0.45738044549599 0.65891224401765 0.99036462599630 
H4    H     0.77378787879178 0.65980210205626 0.09661786715139 
H5    H     0.91332274637642 0.62225395142648 0.22700557568940 
H6    H     0.83729541618647 0.55974479153550 0.35623684282479 
H7    H     0.58741388142614 0.48300699497111 0.44211052146117 
H8    H     0.22534933259174 0.39405332861436 0.46601027078021 
H9    H     0.88116762293798 0.30944786775583 0.41764532714789 
H10   H     0.63889268978989 0.23812067687036 0.31049115160122 
H11   H     0.60273443223319 0.18491877236142 0.17650481004694 
H12   H     0.76783195960232 0.16722722778452 0.04810234383330 
H13   H     0.14814829536824 0.24627203265605 0.02414033298375 
H14   H     0.33953294183546 0.34835847094722 0.12292179362613 
