data_stdin
_audit_creation_method 'critic2'
_audit_creation_date 2023-8-11
_chemical_formula_sum 'C22 H14'
_cell_formula_units_Z 12
_cell_length_a        19.3548861279
_cell_length_b         8.8302426794
_cell_length_c        25.7733391494
_cell_angle_alpha        90.0010
_cell_angle_beta       103.6984
_cell_angle_gamma        90.0013
_cell_volume          4279.585361
_space_group_crystal_system monoclinic
_space_group_IT_number 14
_space_group_name_H-M_alt 'P2_1/c'
_space_group_name_Hall '-P 2ybc'
loop_
_symmetry_equiv_pos_site_id
_symmetry_equiv_pos_as_xyz
 1 'x,y,z'
 2 '-x,-y,-z'
 3 '-x,-1/2+y,-1/2-z'
 4 'x,-1/2-y,-1/2+z'
loop_
_atom_site_label
_atom_site_type_symbol
_atom_site_fract_x
_atom_site_fract_y
_atom_site_fract_z
C1    C     0.36383104227844 0.25423800368872 0.50056443415055 
C2    C     0.35337904885135 0.37417238155965 0.53441475323475 
H1    H     0.37875848056659 0.36905795184530 0.57672538484509 
C3    C     0.30914336834751 0.49463509179133 0.51540569428425 
H2    H     0.30121050889110 0.58244922622073 0.54304980740096 
C4    C     0.27247752472609 0.50123953543662 0.46128140743615 
H3    H     0.23743262742194 0.59640116127905 0.44691710803702 
C5    C     0.27882155457439 0.38308473055949 0.42763260243222 
H4    H     0.24835173439214 0.38206907034076 0.38620616024256 
C6    C     0.32274952330648 0.25676149436618 0.44644674974235 
C7    C     0.32274529805462 0.12788066268956 0.41308425422652 
H5    H     0.29296755148351 0.13319720720064 0.37160286356684 
C8    C     0.35417928891100 0.99627459498580 0.43429552473981 
H6    H     0.34902446892908 0.89346212976432 0.41036114583136 
C9    C     0.39358657529622 0.98867059049705 0.48853658903573 
C10   C     0.41607107733211 0.84577670818142 0.51195151299026 
H7    H     0.40208776274983 0.74423379341525 0.48778549374361 
C11   C     0.45041226807743 0.83590613433148 0.56472648514679 
H8    H     0.46314213740088 0.72600482440530 0.58369105398692 
C12   C     0.47410776004722 0.96911310594489 0.59473528090464 
C13   C     0.51461314054814 0.95706928645954 0.64866633475614 
H9    H     0.52198409014762 0.84529689605725 0.66714174832193 
C14   C     0.54412673371246 0.08174922830455 0.67671487916824 
H10   H     0.57344618191998 0.07207423811547 0.71815193797525 
C15   C     0.54160816739014 0.22479292764355 0.65057492404482 
C16   C     0.58236991100531 0.34858345513793 0.67646485443642 
H11   H     0.61083089615139 0.33469813477394 0.71811705906875 
C17   C     0.58810628437367 0.48088478825667 0.64918991333176 
H12   H     0.62076289842573 0.57432046878172 0.66885298141677 
C18   C     0.55332080200031 0.49217715071478 0.59468640077669 
H13   H     0.56160083902371 0.59211849084870 0.57224468619171 
C19   C     0.51014400615976 0.37629550386026 0.56953355140039 
H14   H     0.48388708224229 0.38735600415759 0.52754066864973 
C20   C     0.50082978197848 0.24096878453050 0.59670840732772 
C21   C     0.45878571216420 0.11417495620130 0.57057522983751 
C22   C     0.40725650113499 0.12267290294146 0.51994896735613 
C23   C     0.00346165810316 0.24992742654682 0.41140595599452 
C24   C     0.99649205447874 0.10787802849442 0.43534951800108 
H15   H     0.02806009986258 0.08543955800308 0.47536438723009 
C25   C     0.94931474115679 0.99897823522233 0.40972027198961 
H16   H     0.94325909966815 0.89331463264304 0.42992841819159 
C26   C     0.90747958081221 0.02475269838186 0.35778741555643 
H17   H     0.87144766947934 0.93729544042658 0.33744013894716 
C27   C     0.91120634143505 0.16345131169437 0.33383173675155 
H18   H     0.87823099488295 0.18679637379490 0.29408963654518 
C28   C     0.95630898104804 0.28008750965632 0.36059532431573 
C29   C     0.95147843447168 0.42970029715422 0.33918058996051 
H19   H     0.91667678919601 0.45114076519812 0.30004190268895 
C30   C     0.98542294007027 0.54636963846458 0.36960787427671 
H20   H     0.97557505211704 0.66260184646027 0.35565132164637 
C31   C     0.03280733826625 0.52051475216705 0.42043122084945 
C32   C     0.06129741855343 0.64571691585387 0.45339188614321 
H21   H     0.04816026881429 0.76011857262978 0.43858577575773 
C33   C     0.10102774077833 0.62226782554072 0.50416689639229 
H22   H     0.11814704320743 0.71729854477219 0.53107262436529 
C34   C     0.12406293959135 0.47396094876891 0.52164787376936 
C35   C     0.16801031077214 0.45261767374691 0.57399087935477 
H23   H     0.17699054038871 0.54897871278077 0.60108751191622 
C36   C     0.19873857649364 0.31583842711511 0.58961426640153 
H24   H     0.23174168918786 0.29977297983154 0.62973075418389 
C37   C     0.19310472976763 0.19533745404904 0.55203227873206 
C38   C     0.23485469220672 0.06301915445953 0.56528589864372 
H25   H     0.26881798843303 0.05412394018832 0.60547447732353 
C39   C     0.23531361021188 0.95186462577570 0.52774902179710 
H26   H     0.26862502593336 0.85188733449830 0.53814141631847 
C40   C     0.19517802907906 0.97255460016300 0.47496413030733 
H27   H     0.19836560434497 0.89001137715364 0.44426662217819 
C41   C     0.15311352602323 0.09957191914594 0.46127882810629 
H28   H     0.12457424147242 0.11526155900373 0.41994133608383 
C42   C     0.14818438785608 0.21193693825102 0.49951848576739 
C43   C     0.10574335699343 0.34841768896676 0.48638773418609 
C44   C     0.04946159633370 0.36961710827406 0.43887889490171 
C45   C     0.29335037804378 0.01151007060502 0.21325055325241 
C46   C     0.25708067421852 0.87318075158769 0.19825492786287 
H29   H     0.20590208066173 0.85505102446636 0.20746692510320 
C47   C     0.28382022479217 0.76285656067329 0.17038029294497 
H30   H     0.25283829391447 0.66058178658931 0.15799016508968 
C48   C     0.34934843144019 0.78453465702817 0.15651584961272 
H31   H     0.37074540259889 0.69627421762378 0.13531103696477 
C49   C     0.38442901433270 0.92118250787765 0.16799602242674 
H32   H     0.43367398822634 0.94310322887180 0.15568317641224 
C50   C     0.35628719782514 0.03837347546649 0.19453320653571 
C51   C     0.38773457397136 0.18543586855716 0.19993095190696 
H33   H     0.43625302195559 0.20377893048455 0.18646465276337 
C52   C     0.35438554266424 0.30349663183193 0.21807851592959 
H34   H     0.37540917325614 0.41807116761622 0.21814027740967 
C53   C     0.29149846543974 0.28065360338931 0.23707806504860 
C54   C     0.25377253945886 0.40767954080695 0.25030613013118 
H35   H     0.27417432767764 0.52103912663638 0.24642149047901 
C55   C     0.19047293166586 0.38798955637880 0.26435931391954 
H36   H     0.15872418821456 0.48493903556123 0.27068276556311 
C56   C     0.16655274088796 0.24061230696685 0.27377143032547 
C57   C     0.10151916277336 0.22306364738201 0.29026427283428 
H37   H     0.06881347508302 0.32297174026334 0.29139563110727 
C58   C     0.08060584854979 0.08447704636832 0.30438171816139 
H38   H     0.03014005834967 0.07055830029168 0.31551830918890 
C59   C     0.12771194399097 0.95829391510292 0.30922405255506 
C60   C     0.11183920744561 0.82218150910927 0.33297834602527 
H39   H     0.06053891371522 0.81314780230539 0.34313604453863 
C61   C     0.16114015988681 0.70689474051986 0.34525284365217 
H40   H     0.14831448043138 0.60417991087054 0.36443638487564 
C62   C     0.22892973036558 0.72653090423471 0.33479370976301 
H41   H     0.26997423481711 0.64096120980719 0.34741092712725 
C63   C     0.24430772265062 0.85531580241287 0.30918053166316 
H42   H     0.29720190892846 0.86876837306397 0.30225135949929 
C64   C     0.19359493076499 0.97253706659341 0.29359227627476 
C65   C     0.20850538628193 0.11171173168992 0.26819046494311 
C66   C     0.26518978558906 0.13132347345162 0.24102632055731 
