data_stdin
_audit_creation_method 'critic2'
_audit_creation_date 2023-8-11
_chemical_formula_sum 'C22 H14'
_cell_formula_units_Z 4
_cell_length_a        20.2047261500
_cell_length_b         8.9695728300
_cell_length_c         7.7303056101
_cell_angle_alpha        90.0000
_cell_angle_beta        89.9998
_cell_angle_gamma        90.0000
_cell_volume          1400.945991
_space_group_crystal_system orthorhombic
_space_group_IT_number 60
_space_group_name_H-M_alt 'Pbcn'
_space_group_name_Hall '-P 2n 2ab'
loop_
_symmetry_equiv_pos_site_id
_symmetry_equiv_pos_as_xyz
 1 'x,y,z'
 2 '-x,-y,-z'
 3 '-1/2-x,-1/2-y,-1/2+z'
 4 '-1/2+x,-1/2+y,-1/2-z'
 5 '-1/2+x,-1/2-y,-z'
 6 '-1/2-x,-1/2+y,z'
 7 '-x,y,-1/2-z'
 8 'x,-y,-1/2+z'
loop_
_atom_site_label
_atom_site_type_symbol
_atom_site_fract_x
_atom_site_fract_y
_atom_site_fract_z
C1    C     0.56497683599530 0.52972420208844 0.31420302195023 
C2    C     0.53509097365232 0.39131628644994 0.26889851178177 
C3    C     0.57923154145993 0.26431804501852 0.24934181905488 
C4    C     0.56238039156175 0.13538590672822 0.15261015827917 
H1    H     0.51362492842604 0.12829106553354 0.09434424842660 
C5    C     0.60683339151247 0.02056866001150 0.12585405824357 
H2    H     0.59248727832801 0.92467594713299 0.04825012369745 
C6    C     0.67125176668140 0.02832035547670 0.19498039397663 
H3    H     0.70598731618697 0.93722084699514 0.17425937982019 
C7    C     0.69027423569822 0.15404579976552 0.28512299624399 
H4    H     0.74062043737032 0.16439931494031 0.33411693975744 
C8    C     0.64597008080493 0.27433550833355 0.31151147311129 
C9    C     0.66883700991772 0.40887845413985 0.38972735698934 
H5    H     0.71832648103759 0.41155828744662 0.44569285551596 
C10   C     0.63051371556141 0.53385404159331 0.38306144933590 
H6    H     0.64873209193827 0.64041504276298 0.43117102630664 
C11   C     0.53070537982489 0.66600829989781 0.28694194688702 
H7    H     0.55569788887391 0.76991764566950 0.31873254972105 
