data_stdin
_audit_creation_method 'critic2'
_audit_creation_date 2023-8-11
_chemical_formula_sum 'C22 H14'
_cell_formula_units_Z 2
_cell_length_a         5.7531283135
_cell_length_b         9.8365122113
_cell_length_c        12.8193569888
_cell_angle_alpha        88.8791
_cell_angle_beta        96.9007
_cell_angle_gamma        84.8222
_cell_volume           716.923207
_space_group_crystal_system triclinic
_space_group_IT_number 2
_space_group_name_H-M_alt 'P-1'
_space_group_name_Hall '-P 1'
loop_
_symmetry_equiv_pos_site_id
_symmetry_equiv_pos_as_xyz
 1 'x,y,z'
 2 '-x,-y,-z'
loop_
_atom_site_label
_atom_site_type_symbol
_atom_site_fract_x
_atom_site_fract_y
_atom_site_fract_z
H1    H     0.26372188988141 0.42915631027500 0.26806458995419 
H2    H     0.10112251937069 0.66851611049492 0.23661969038154 
H3    H     0.68848267991973 0.72410957007014 0.15408886006864 
H4    H     0.44793164056400 0.53669694978499 0.09298212968108 
H5    H     0.41688323076687 0.29600726990791 0.05770145028834 
H6    H     0.61848661969502 0.06303751972513 0.04925560024375 
H7    H     0.96042666076877 0.90154465961217 0.08779557962005 
H8    H     0.99419796977051 0.33123077996946 0.40530366973500 
H9    H     0.35904246989464 0.83814286950636 0.18206550030258 
H10   H     0.69038084007745 0.89041423047111 0.30498505975652 
H11   H     0.87044313971001 0.03687021991386 0.44041872005786 
H12   H     0.14000166050806 0.43766179005522 0.56933952014518 
H13   H     0.81850858928156 0.21632866982084 0.56709696032384 
H14   H     0.55787370967376 0.39148938039136 0.64598516984189 
C1    C     0.08294684058555 0.45173522958340 0.23248090038443 
C2    C     0.94761395032681 0.34211294000512 0.20316826992057 
C3    C     0.04063110994176 0.19965213024069 0.21819740028147 
C4    C     0.24353730025292 0.15037013988226 0.29058315030457 
C5    C     0.99210730058098 0.58629415992366 0.21448096982691 
C6    C     0.71843816966798 0.37536653989318 0.14685513016614 
C7    C     0.93016665951896 0.10426239993800 0.15128435030310 
C8    C     0.32524265976917 0.21701741016896 0.38653795969300 
C9    C     0.36739586068177 0.02356106044434 0.27033296972031 
C10   C     0.75923174956129 0.61786303012137 0.16705720031059 
C11   C     0.62509038929830 0.51380667042152 0.13358475987794 
C12   C     0.59410440932166 0.26999875021556 0.09732894015718 
C13   C     0.70394417958230 0.14152291034230 0.09406879038812 
C14   C     0.55658035947918 0.17781766960722 0.43842195026749 
C15   C     0.04490604921997 0.97167601041318 0.14167916963421 
C16   C     0.17730279917284 0.30953061995581 0.43794406982516 
C17   C     0.26397506065110 0.93611637981890 0.19464354984678 
C18   C     0.59481951988238 0.98462856020127 0.32576450973450 
C19   C     0.69265398055822 0.06394133010954 0.40208777011177 
C20   C     0.25898425936612 0.36943750039491 0.53019831988432 
C21   C     0.63978347084724 0.24528616039076 0.53021415026278 
C22   C     0.49464231974714 0.34102582973042 0.57477673964295 
