data_stdin
_audit_creation_method 'critic2'
_audit_creation_date 2023-8-11
_chemical_formula_sum 'C22 H14'
_cell_formula_units_Z 2
_cell_length_a         5.8971696374
_cell_length_b         9.5956578576
_cell_length_c        13.0066432129
_cell_angle_alpha        74.4231
_cell_angle_beta        92.2277
_cell_angle_gamma        92.3447
_cell_volume           708.085781
_space_group_crystal_system triclinic
_space_group_IT_number 2
_space_group_name_H-M_alt 'P-1'
_space_group_name_Hall '-P 1'
loop_
_symmetry_equiv_pos_site_id
_symmetry_equiv_pos_as_xyz
 1 'x,y,z'
 2 '-x,-y,-z'
loop_
_atom_site_label
_atom_site_type_symbol
_atom_site_fract_x
_atom_site_fract_y
_atom_site_fract_z
H1    H     0.03428865026202 0.64726604978612 0.59803448996786 
H2    H     0.10962621953743 0.59262742985366 0.42882039994461 
H3    H     0.48567639926768 0.65446647010445 0.34584796982425 
H4    H     0.77490102017828 0.79432789043888 0.42569067018779 
H5    H     0.88087494932043 0.92828621990347 0.55579891972574 
H6    H     0.76741779078316 0.03269141040674 0.69946725007561 
H7    H     0.49482652019614 0.05525249972537 0.82814510990603 
H8    H     0.34132970070555 0.48926856985526 0.73383039969318 
H9    H     0.13790790032888 0.97516080043283 0.92510746032295 
H10   H     0.81044537010548 0.81077875977637 0.96473374972881 
H11   H     0.60063773055840 0.58759998052907 0.95235385996777 
H12   H     0.18086150978127 0.24136801991582 0.76090936023083 
H13   H     0.60519398030186 0.35229187035131 0.91237722964030 
H14   H     0.80511740074529 0.17405288947846 0.84416418005395 
C1    C     0.19978092997837 0.67538854989559 0.56296650016066 
C2    C     0.36595682040275 0.74588716040709 0.61464455996614 
C3    C     0.32622645038054 0.78223947035488 0.71386786005746 
C4    C     0.15322074034670 0.71485047005789 0.78819363999059 
C5    C     0.24171942043086 0.64468334967312 0.46764771033292 
C6    C     0.57182943975705 0.79594367981763 0.55987941964987 
C7    C     0.46061232992081 0.89832278045507 0.73551577993648 
C8    C     0.06089213978701 0.56848674986450 0.80172357981460 
C9    C     0.07485955009011 0.79273285030645 0.85820448034426 
C10   C     0.45367947036223 0.68186352024209 0.41976247971722 
C11   C     0.61473470071900 0.75775668022625 0.46471846968998 
C12   C     0.72290903084262 0.89304855010032 0.59698646007102 
C13   C     0.66186249940293 0.94883506966667 0.67752435028812 
C14   C     0.85646748054968 0.52464060961487 0.85912574000794 
C15   C     0.39295735951762 0.96411378963563 0.81479786014823 
C16   C     0.17678290943914 0.46133640045816 0.76981928997143 
C17   C     0.19768830974210 0.91867326035013 0.86943199988810 
C18   C     0.87375324964306 0.74435411982920 0.91675663005116 
C19   C     0.75983489980391 0.61970691994853 0.91173329010446 
C20   C     0.08715161073107 0.32209949975680 0.78522772978187 
C21   C     0.76319562985829 0.38314671013727 0.87021099008342 
C22   C     0.87530519002065 0.28363075992675 0.83311254013483 
