data_stdin
_audit_creation_method 'critic2'
_audit_creation_date 2023-8-11
_chemical_formula_sum 'C22 H14'
_cell_formula_units_Z 8
_cell_length_a        20.8339864007
_cell_length_b         8.5495432008
_cell_length_c        16.5289586704
_cell_angle_alpha        90.0003
_cell_angle_beta        90.0005
_cell_angle_gamma        90.0011
_cell_volume          2944.155750
_space_group_crystal_system orthorhombic
_space_group_IT_number 60
_space_group_name_H-M_alt 'Pbcn'
_space_group_name_Hall '-P 2n 2ab'
loop_
_symmetry_equiv_pos_site_id
_symmetry_equiv_pos_as_xyz
 1 'x,y,z'
 2 '-x,-y,-z'
 3 '-1/2-x,-1/2-y,-1/2+z'
 4 '-1/2+x,-1/2+y,-1/2-z'
 5 '-1/2+x,-1/2-y,-z'
 6 '-1/2-x,-1/2+y,z'
 7 '-x,y,-1/2-z'
 8 'x,-y,-1/2+z'
loop_
_atom_site_label
_atom_site_type_symbol
_atom_site_fract_x
_atom_site_fract_y
_atom_site_fract_z
H1    H     0.39016649991660 0.73255380941672 0.89154053971036 
H2    H     0.35476269023584 0.82523356001311 0.75848636009543 
H3    H     0.30191650989126 0.64140825039420 0.66123853024053 
H4    H     0.29042585015577 0.36162359970840 0.69792407983008 
H5    H     0.31093402020189 0.14431843024913 0.78869475003832 
H6    H     0.37244053983875 0.04091385957714 0.90609744993876 
H7    H     0.44523518990488 0.08347042961136 0.01722199992149 
H8    H     0.28566801022345 0.65580804995128 0.96333663995265 
H9    H     0.49640080980811 0.26165604999269 0.11740534021390 
H10   H     0.50785947002852 0.51439542021477 0.17755437024968 
H11   H     0.47125039997935 0.78830698039556 0.19509140014739 
H12   H     0.23765861977444 0.90341153981276 0.00211733984383 
H13   H     0.39249926991416 0.98907527961132 0.16880314019230 
H14   H     0.29284232983574 0.08074495945383 0.10044717008309 
C1    C     0.36700787986501 0.65130592005793 0.85032347995810 
C2    C     0.35889452011054 0.49341390009144 0.87455219992359 
C3    C     0.38253203988332 0.43317635039396 0.95127307981494 
C4    C     0.39911547994901 0.52775469974560 0.02067705993122 
C5    C     0.34720940980449 0.70341370038729 0.77521377018379 
C6    C     0.33268640007968 0.38720977055137 0.81626913978708 
C7    C     0.39453711979883 0.26936835948096 0.95545858002617 
C8    C     0.36962297995987 0.67688239958176 0.04069498996952 
C9    C     0.44415095010515 0.46589273032090 0.07706918008961 
C10   C     0.31753001019482 0.60018496962699 0.72032007003283 
C11   C     0.31049601980987 0.44471587002236 0.74094930024539 
C12   C     0.33383225001571 0.22289882021878 0.83179573013595 
C13   C     0.36706177023333 0.16645122976835 0.89676603994750 
C14   C     0.39725685981808 0.77125123026765 0.10329926992654 
C15   C     0.43504733010690 0.20835106057204 0.01706471992444 
C16   C     0.31065398014161 0.72833700022947 0.00709098992715 
C17   C     0.46243985023338 0.30585409984362 0.07282530028539 
C18   C     0.47044721991173 0.56295368048850 0.13900063997295 
C19   C     0.45010956001297 0.71326617954894 0.14903841980201 
C20   C     0.28325141017367 0.86942290962879 0.02895567013455 
C21   C     0.36929619009470 0.91740266948749 0.12278248979343 
C22   C     0.31365999006445 0.96758308968368 0.08567405979007 
