data_stdin
_audit_creation_method 'critic2'
_audit_creation_date 2023-8-11
_chemical_formula_sum 'C22 H14'
_cell_formula_units_Z 8
_cell_length_a        21.1759988392
_cell_length_b         8.7811152628
_cell_length_c        15.9495562062
_cell_angle_alpha        90.0019
_cell_angle_beta        72.0958
_cell_angle_gamma        89.9992
_cell_volume          2822.174167
_space_group_crystal_system monoclinic
_space_group_IT_number 15
_space_group_name_H-M_alt 'C2/c'
_space_group_name_Hall '-C 2yc'
loop_
_symmetry_equiv_pos_site_id
_symmetry_equiv_pos_as_xyz
 1 'x,y,z'
 2 '-1/2-x,-1/2-y,-z'
 3 '-1/2-x,-1/2+y,-1/2-z'
 4 'x,-y,-1/2+z'
 5 '-1/2+x,-1/2+y,z'
 6 '-x,-y,-z'
 7 '-x,y,-1/2-z'
 8 '-1/2+x,-1/2-y,-1/2+z'
loop_
_atom_site_label
_atom_site_type_symbol
_atom_site_fract_x
_atom_site_fract_y
_atom_site_fract_z
H1    H     0.47962445121172 0.62695881265102 0.20278194016373 
H2    H     0.39955660476608 0.42021105621295 0.25104738400387 
H3    H     0.28768107862536 0.43729120530007 0.22885393859719 
H4    H     0.25612545222043 0.67431289161652 0.16726263377160 
H5    H     0.28010103983804 0.93155031004546 0.11208138920639 
H6    H     0.35078545942931 0.16230883389844 0.09617241961224 
H7    H     0.44458810426151 0.28822173072967 0.11456402833777 
H8    H     0.51148898821374 0.63210418799221 0.04119330677084 
H9    H     0.55342364778997 0.28275456200725 0.14316433528979 
H10   H     0.64637207341051 0.14680261010013 0.15762765534399 
H11   H     0.71493724898151 0.91098945426428 0.13583253574426 
H12   H     0.58936726115806 0.42046767016232 0.99069234773238 
H13   H     0.73486566684552 0.65690659807092 0.07932956017010 
H14   H     0.70068650906816 0.42620037051330 0.01312634578655 
C1    C     0.43157548201677 0.63700029507795 0.19238478623223 
C2    C     0.41672329146710 0.77144350179634 0.15306477637311 
C3    C     0.46202479069049 0.90008409516596 0.12873979450825 
C4    C     0.53202162410688 0.89730603672802 0.12118349342009 
C5    C     0.38634388383321 0.51982698121174 0.21943350697928 
C6    C     0.35076038379985 0.78484128175357 0.14702079146021 
C7    C     0.43346111534295 0.04324759177256 0.11890637052042 
C8    C     0.57579836974768 0.76661525556838 0.09442802607280 
C9    C     0.56211185316111 0.03697634664746 0.13398803636116 
C10   C     0.32308706894980 0.53024020968513 0.20827106609637 
C11   C     0.30573545277812 0.66178410610872 0.17339708838034 
C12   C     0.32936724067922 0.92519579257959 0.11982722458827 
C13   C     0.36832788014978 0.05155544525012 0.11046600050295 
C14   C     0.64183930760035 0.77361574551751 0.10052608125029 
C15   C     0.46834284177077 0.18080129087476 0.12072364691556 
C16   C     0.55931976025009 0.63641769324383 0.05279516070461 
C17   C     0.52857098616939 0.17754830212018 0.13536263110238 
C18   C     0.62746773603710 0.03864587554765 0.14177200487043 
C19   C     0.66526109700448 0.90998461744156 0.12929084614435 
C20   C     0.60318363722779 0.51707444778965 0.02404271566777 
C21   C     0.68528133700071 0.64818260314580 0.07290068130085 
C22   C     0.66646627894625 0.52093422128646 0.03579597655750 
