data_stdin
_audit_creation_method 'critic2'
_audit_creation_date 2023-8-11
_chemical_formula_sum 'C22 H14'
_cell_formula_units_Z 4
_cell_length_a         5.7872894371
_cell_length_b        24.9516401236
_cell_length_c        11.0540343853
_cell_angle_alpha        89.9978
_cell_angle_beta        63.7177
_cell_angle_gamma        90.0016
_cell_volume          1431.215499
_space_group_crystal_system monoclinic
_space_group_IT_number 14
_space_group_name_H-M_alt 'P2_1/c'
_space_group_name_Hall '-P 2ybc'
loop_
_symmetry_equiv_pos_site_id
_symmetry_equiv_pos_as_xyz
 1 'x,y,z'
 2 '-x,-y,-z'
 3 '-x,-1/2+y,-1/2-z'
 4 'x,-1/2-y,-1/2+z'
loop_
_atom_site_label
_atom_site_type_symbol
_atom_site_fract_x
_atom_site_fract_y
_atom_site_fract_z
H1    H     0.74190138004762 0.88220356999197 0.08607678049971 
H2    H     0.82145670968867 0.86134847984958 0.85344818953791 
H3    H     0.47866329992796 0.81781023998172 0.80799887960201 
H4    H     0.06946119925567 0.79027596995385 0.99920182017692 
H5    H     0.80239469936197 0.77851643019176 0.24343910010225 
H6    H     0.77291048026706 0.77948913995179 0.47257572027980 
H7    H     0.95224159073341 0.80275349019625 0.62805674958486 
H8    H     0.34627891048798 0.95426449019851 0.17215819998822 
H9    H     0.27731527078661 0.85039957999770 0.67724848002249 
H10   H     0.64249053066432 0.91058647986889 0.60906572990836 
H11   H     0.94064853958864 0.97645614003407 0.44812905011935 
H12   H     0.55586515008159 0.03717219987704 0.05431462952522 
H13   H     0.03111812032419 0.03874033008811 0.26253317027022 
H14   H     0.91545773981300 0.07716446019805 0.08850294967452 
C1    C     0.59096018031606 0.86344540982899 0.06777712044421 
C2    C     0.35383534080349 0.85065661020000 0.17944414981522 
C3    C     0.30395914954804 0.86130025015279 0.31821067963003 
C4    C     0.44650578905180 0.89893218019886 0.35807329046402 
C5    C     0.63613322938701 0.85152649980176 0.93696081032677 
C6    C     0.16859370976358 0.82120699016070 0.15309547037194 
C7    C     0.11110242944850 0.82966008985672 0.42026801966042 
C8    C     0.57411790038853 0.94653536983475 0.28233372956806 
C9    C     0.45164875971068 0.89103421982536 0.48436655041548 
C10   C     0.44403372028029 0.82653752981721 0.91121709995252 
C11   C     0.21485915916760 0.81146013993150 0.01794179039165 
C12   C     0.94930631023320 0.79866764019866 0.26310016974025 
C13   C     0.93125104917345 0.80000256990008 0.39047954023019 
C14   C     0.75864896987699 0.97353263989044 0.31381101987432 
C15   C     0.09808394062683 0.82783433994525 0.55172518989629 
C16   C     0.50243444064845 0.97139846001531 0.18882758964807 
C17   C     0.27508884003498 0.85473429998239 0.57969006951725 
C18   C     0.63313603982314 0.91957634016926 0.51492304034771 
C19   C     0.79396692020830 0.95673428010940 0.42779690050225 
C20   C     0.62014385979765 0.01797351987982 0.12242864952590 
C21   C     0.88661731995828 0.01954168012094 0.23917133954212 
C22   C     0.82032262959491 0.04127591018543 0.14406775998587 
