data_stdin
_audit_creation_method 'critic2'
_audit_creation_date 2023-8-11
_chemical_formula_sum 'C22 H14'
_cell_formula_units_Z 8
_cell_length_a        16.4675229317
_cell_length_b         7.5640077005
_cell_length_c        22.6048666466
_cell_angle_alpha        90.0014
_cell_angle_beta        90.0005
_cell_angle_gamma        90.0001
_cell_volume          2815.672819
_space_group_crystal_system orthorhombic
_space_group_IT_number 60
_space_group_name_H-M_alt 'Pbcn'
_space_group_name_Hall '-P 2n 2ab'
loop_
_symmetry_equiv_pos_site_id
_symmetry_equiv_pos_as_xyz
 1 'x,y,z'
 2 '-x,-y,-z'
 3 '-1/2-x,-1/2-y,-1/2+z'
 4 '-1/2+x,-1/2+y,-1/2-z'
 5 '-1/2+x,-1/2-y,-z'
 6 '-1/2-x,-1/2+y,z'
 7 '-x,y,-1/2-z'
 8 'x,-y,-1/2+z'
loop_
_atom_site_label
_atom_site_type_symbol
_atom_site_fract_x
_atom_site_fract_y
_atom_site_fract_z
H1    H     0.09036942992706 0.78299022973998 0.36835213018479 
H2    H     0.08823262988240 0.48915751047858 0.32354393991515 
H3    H     0.95622772994262 0.34320758963294 0.29888333988652 
H4    H     0.82717168004611 0.49372328982519 0.32376949014204 
H5    H     0.75364938028761 0.73748815009247 0.36975712009257 
H6    H     0.75691842989748 0.99555315975350 0.43666247980822 
H7    H     0.83102408004765 0.20964708042936 0.49379859017577 
H8    H     0.03552661012036 0.98952494969604 0.28946090983490 
H9    H     0.96208984005112 0.34411038050029 0.52465267993060 
H10   H     0.10407511973648 0.38908777041065 0.51053403020592 
H11   H     0.22535385026193 0.38101625969082 0.44495547013106 
H12   H     0.14361310005346 0.04161716035319 0.21728312995794 
H13   H     0.28163313007761 0.32317174991333 0.34852566982789 
H14   H     0.27049829975638 0.20304940936165 0.24731156995978 
C1    C     0.03241574019170 0.72414347022203 0.35680277994113 
C2    C     0.95999850979514 0.81832889959868 0.36933596015213 
C3    C     0.95955204982725 0.98954215954535 0.39858782004243 
C4    C     0.02954036975177 0.10372949964405 0.40500508012935 
C5    C     0.03126373000992 0.55733037987924 0.33202584990572 
C6    C     0.88478195024165 0.72859547035319 0.35864171018467 
C7    C     0.88645487973490 0.03978275002723 0.42791358017071 
C8    C     0.09567331998366 0.11942655018095 0.36264432990851 
C9    C     0.03107137029836 0.22046013063345 0.45440192002080 
C10   C     0.95693502029799 0.47447022990029 0.31854902986993 
C11   C     0.88507271978712 0.55900336009629 0.33193511990815 
C12   C     0.81071208024376 0.80406077969443 0.37949150997064 
C13   C     0.81245699970644 0.94828003952764 0.41579223984389 
C14   C     0.16636804979386 0.22012044965935 0.37803527979684 
C15   C     0.88750611009504 0.17560097945076 0.47141629979305 
C16   C     0.08990753992136 0.05902487013004 0.30336714017983 
C17   C     0.95927321971570 0.25236235936647 0.48763624995933 
C18   C     0.10377837983324 0.31282249036363 0.46965978988068 
C19   C     0.17038676008592 0.30789587034816 0.43384103010247 
C20   C     0.15096669024629 0.08881155962150 0.26251604978947 
C21   C     0.22899450026113 0.24465452015485 0.33593935989068 
C22   C     0.22201721019317 0.18014967998796 0.27908364981280 
