data_stdin
_audit_creation_method 'critic2'
_audit_creation_date 2023-8-11
_chemical_formula_sum 'C22 H14'
_cell_formula_units_Z 4
_cell_length_a         8.6523475633
_cell_length_b        20.7091867108
_cell_length_c         8.3105540326
_cell_angle_alpha        89.9987
_cell_angle_beta        82.2054
_cell_angle_gamma        89.9993
_cell_volume          1475.352178
_space_group_crystal_system monoclinic
_space_group_IT_number 9
_space_group_name_H-M_alt 'Cc'
_space_group_name_Hall 'C -2yc'
loop_
_symmetry_equiv_pos_site_id
_symmetry_equiv_pos_as_xyz
 1 'x,y,z'
 2 'x,-y,-1/2+z'
 3 '-1/2+x,-1/2+y,z'
 4 '-1/2+x,-1/2-y,-1/2+z'
loop_
_atom_site_label
_atom_site_type_symbol
_atom_site_fract_x
_atom_site_fract_y
_atom_site_fract_z
H1    H     0.00488604989555 0.71495029015191 0.00344456961122 
H2    H     0.23139575972602 0.65658140998094 0.07489955046488 
H3    H     0.30220550945024 0.54870258000267 0.95682848058017 
H4    H     0.12887095048559 0.49601471995614 0.77758843010624 
H5    H     0.89262615048280 0.49510886993043 0.65144092951153 
H6    H     0.63323722022717 0.54321853012613 0.62955904020802 
H7    H     0.44104215953622 0.62646222981773 0.69990252017828 
H8    H     0.07288544981843 0.73828093986390 0.69410656023455 
H9    H     0.36607778993529 0.73298209003754 0.82226379005031 
H10   H     0.43615019059404 0.83522290981695 0.93088650967677 
H11   H     0.63581546989834 0.91640487022495 0.97388997987236 
H12   H     0.25897044950201 0.82810945003244 0.67434534015064 
H13   H     0.90380826958499 0.95384487017058 0.91167457020266 
H14   H     0.17929458009175 0.93568318999666 0.79317366038476 
C1    C     0.03214565988273 0.66769106018819 0.95020561944846 
C2    C     0.93565170033118 0.64093412007769 0.84233772008583 
C3    C     0.79771346043961 0.67344011013236 0.80025455951131 
C4    C     0.76329268029937 0.74127650006858 0.82618846046526 
C5    C     0.16001592988250 0.63477646991918 0.99151839025705 
C6    C     0.96899911019646 0.57629615006659 0.78676869057622 
C7    C     0.68255179982645 0.63416072999164 0.74106017993591 
C8    C     0.87924727015463 0.79235106990329 0.82103163059208 
C9    C     0.60357320978125 0.76042552989841 0.84683226058182 
C10   C     0.19891023939576 0.57325425997099 0.92586308049421 
C11   C     0.10394880054871 0.54441734991670 0.82585779968962 
C12   C     0.86215211035528 0.54317055986852 0.69918406977339 
C13   C     0.72059123978959 0.57012612014801 0.68479284029514 
C14   C     0.83112874966626 0.85582656976612 0.87516998942347 
C15   C     0.52794835953897 0.65768941022708 0.74274357979102 
C16   C     0.03579257940496 0.78458080992354 0.74716966016684 
C17   C     0.48715023963401 0.71708335993263 0.80685429053446 
C18   C     0.55992374957256 0.82373421022698 0.90433179019217 
C19   C     0.67010718995612 0.86885878001273 0.92625186941014 
C20   C     0.14087584939122 0.83517289989106 0.73574942031998 
C21   C     0.94249558003640 0.90628042998004 0.86678361999467 
C22   C     0.09536856019042 0.89633897994736 0.79949385045698 
