data_stdin
_audit_creation_method 'critic2'
_audit_creation_date 2023-8-11
_chemical_formula_sum 'C22 H14'
_cell_formula_units_Z 8
_cell_length_a         8.8843787535
_cell_length_b        31.7549748397
_cell_length_c        10.0866112469
_cell_angle_alpha        90.0087
_cell_angle_beta        89.9986
_cell_angle_gamma        89.9946
_cell_volume          2845.667236
_space_group_crystal_system triclinic
_space_group_IT_number 2
_space_group_name_H-M_alt 'P-1'
_space_group_name_Hall '-P 1'
loop_
_symmetry_equiv_pos_site_id
_symmetry_equiv_pos_as_xyz
 1 'x,y,z'
 2 '-x,-y,-z'
loop_
_atom_site_label
_atom_site_type_symbol
_atom_site_fract_x
_atom_site_fract_y
_atom_site_fract_z
H1    H     0.69606352481951 0.42834873457040 0.89607601521979 
H2    H     0.19590995301792 0.07168436011757 0.10382342147458 
H3    H     0.30405165448555 0.92838996174667 0.60385394929137 
H4    H     0.80386207326349 0.57159332148615 0.39603312816772 
H5    H     0.66996505845177 0.50479432258915 0.91727161248706 
H6    H     0.16969496903008 0.99523994021519 0.08260861830056 
H7    H     0.33009131520516 0.00483593097039 0.58272702780976 
H8    H     0.82999705760375 0.49514999384540 0.41723483108171 
H9    H     0.81855527426039 0.54447925391273 0.08556612295589 
H10   H     0.31843966711623 0.95552672862384 0.91445236679713 
H11   H     0.18140138171429 0.04452384008741 0.41451938770920 
H12   H     0.68146164482773 0.45548001402403 0.58555751472591 
H13   H     0.99343058944425 0.50558030481611 0.23443936243974 
H14   H     0.49354176316732 0.99438546529773 0.76572488046787 
H15   H     0.00653718196947 0.00562224259071 0.26562647166156 
H16   H     0.50661586629651 0.49438738365519 0.73447801734481 
H17   H     0.09420609930112 0.44114891019804 0.32009174047020 
H18   H     0.59450097169884 0.05881356106104 0.68008716488780 
H19   H     0.90577118768999 0.94119636690844 0.17992372652592 
H20   H     0.40592404279189 0.55883077252714 0.82025654407065 
H21   H     0.07101134114049 0.36362940645807 0.34315642675404 
H22   H     0.57130295064594 0.13632952755258 0.65694116781603 
H23   H     0.92893009693114 0.86367224307157 0.15682501537180 
H24   H     0.42897675536944 0.63634721717513 0.84323634300794 
H25   H     0.94494980077080 0.29964758398498 0.28936088115697 
H26   H     0.44505730616911 0.20030764848049 0.71052444393719 
H27   H     0.05492071930134 0.79969365490807 0.21053688873042 
H28   H     0.55486702028978 0.70033050648317 0.78937752862733 
H29   H     0.95703962738886 0.40693314557595 0.81186507126819 
H30   H     0.45704677494384 0.09306105407372 0.18812420669912 
H31   H     0.04313080599710 0.90703253396413 0.68813634221476 
H32   H     0.54290064192594 0.59300982249088 0.31186287414331 
H33   H     0.77002388397807 0.25855697569665 0.14654881219227 
H34   H     0.27004165795544 0.24141912257138 0.85323550510074 
H35   H     0.22979307458161 0.75857313152690 0.35333008728858 
H36   H     0.72979991951504 0.74142016314658 0.64657756618509 
H37   H     0.60988633193642 0.25371457379181 0.95189386171805 
H38   H     0.11005971220568 0.24631679270844 0.04798393605214 
H39   H     0.38970391903625 0.75367966841930 0.54800872744655 
H40   H     0.89003022844276 0.74623637453527 0.45199860786787 
H41   H     0.54195774051890 0.27860833203611 0.72691884710812 
H42   H     0.04206826721975 0.22143944191784 0.27296521843578 
H43   H     0.45767836255804 0.77855646545283 0.77303292879214 
H44   H     0.95803707672986 0.72132204849228 0.22702197042740 
H45   H     0.94514683381688 0.41819133527838 0.57058210641155 
H46   H     0.44505820586082 0.08180809974223 0.42940817901218 
H47   H     0.05500058780394 0.91827394527634 0.92942938037149 
H48   H     0.55474964407212 0.58176429366211 0.07055456573738 
H49   H     0.61359939454368 0.32045511860283 0.53459140827930 
H50   H     0.11358911559565 0.17958608538556 0.46530670386241 
H51   H     0.38612515223204 0.82041547862226 0.96536119958483 
H52   H     0.88629179482912 0.67949640103636 0.03464502255338 
H53   H     0.76706622400268 0.37675870726853 0.43116060593395 
H54   H     0.26700440719762 0.12327457790675 0.56878790921449 
H55   H     0.23281841178420 0.87676349334792 0.06883837972186 
H56   H     0.73275871929071 0.62320921256637 0.93116173725025 
C1    C     0.76262006047104 0.44482672702212 0.96993743278917 
C2    C     0.26252724234379 0.05519054055034 0.03002657663635 
C3    C     0.23744392550298 0.94486584253461 0.53002803713282 
C4    C     0.73735191681665 0.55512447916953 0.46992766953046 
C5    C     0.85995070166823 0.42145037336707 0.05388406160941 
C6    C     0.35997377305214 0.07854807221842 0.94613617187291 
C7    C     0.14008322048297 0.92149060191975 0.44609067447448 
C8    C     0.64004438170708 0.57850728832435 0.55391103016082 
C9    C     0.86579695040214 0.37562113497893 0.05548289279268 
C10   C     0.36588731933517 0.12437220421605 0.94450191521143 
C11   C     0.13419581322981 0.87566041575173 0.44447653220258 
C12   C     0.63414514590998 0.62433463653557 0.55551883727741 
C13   C     0.79999931128710 0.34833463453003 0.95621094201244 
C14   C     0.30008198226976 0.15167435689987 0.04373400737974 
C15   C     0.19994742497401 0.84836603133933 0.54373492736366 
C16   C     0.69992069516275 0.65161772804321 0.45625125746846 
C17   C     0.74676192840491 0.48798918376332 0.98262027691406 
C18   C     0.24660385946404 0.01203091331033 0.01733125815293 
C19   C     0.25328757658597 0.98802942644084 0.51737680366252 
C20   C     0.75322399299845 0.51196287156242 0.48260921697379 
C21   C     0.94049376210595 0.44457511326968 0.15316064222165 
C22   C     0.44059355962674 0.05540624673733 0.84692840957001 
C23   C     0.05952142240687 0.94461794979870 0.34684188869547 
C24   C     0.55954891487338 0.55538884440016 0.65321113624021 
C25   C     0.92787309377337 0.35624776166821 0.17078984833573 
C26   C     0.42802488938519 0.14372890836242 0.82920016972314 
C27   C     0.07207892463726 0.85628876092827 0.32916633535117 
C28   C     0.57204714905967 0.64371791954937 0.67082291848232 
C29   C     0.78821941908850 0.35783501497800 0.81567104502483 
C30   C     0.28826801878023 0.14217910521472 0.18427472809504 
C31   C     0.21174553791337 0.85786817050945 0.68428627328934 
C32   C     0.71171571228326 0.64211017422945 0.31570562354862 
C33   C     0.75244329514105 0.30743154480694 0.99692863668372 
C34   C     0.25254519154107 0.19257564315060 0.00297235536271 
C35   C     0.24739925008106 0.80744831642611 0.50299570057396 
C36   C     0.74744646953796 0.69252732416854 0.49697686234980 
C37   C     0.83006293022638 0.51048566680647 0.07801450174843 
C38   C     0.32998674366560 0.98951856862596 0.92200740441913 
C39   C     0.16993950341132 0.01052868821995 0.42203220889741 
C40   C     0.66995529595898 0.48947287000671 0.57801893491786 
C41   C     0.92642688836768 0.48891296128672 0.16066869157958 
C42   C     0.42647827614111 0.01106935797681 0.83942560576993 
C43   C     0.07357404411896 0.98895589409151 0.33936907146762 
C44   C     0.57360914270346 0.51104995164917 0.66070436817080 
C45   C     0.02699868223607 0.42288706918282 0.25057227111927 
C46   C     0.52721214756359 0.07707502335994 0.74955997709916 
C47   C     0.97298595271526 0.92293429115456 0.24942996015897 
C48   C     0.47306748167064 0.57708018522142 0.75066519317344 
C49   C     0.01568834927499 0.38021855310964 0.26219974743994 
C50   C     0.51591725983504 0.11974347603760 0.73786956948796 
C51   C     0.98426992736664 0.88026467389703 0.23778080241764 
C52   C     0.48428920193325 0.61974950240177 0.76227573967621 
C53   C     0.69571892512738 0.33186117332196 0.73295574243853 
C54   C     0.19576091749545 0.16816456858213 0.26696226241147 
C55   C     0.30412906756195 0.83186312636870 0.76699308349152 
C56   C     0.80421228596567 0.66808253489418 0.23300901149238 
C57   C     0.89801894987546 0.31316153400872 0.19905097735191 
C58   C     0.39813334728241 0.18681035469243 0.80086149043594 
C59   C     0.10187117424534 0.81319760820947 0.30086305290668 
C60   C     0.60183290794365 0.68681093446718 0.69907416780436 
C61   C     0.87837884065540 0.38870885556549 0.75254754154978 
C62   C     0.37838033016848 0.11129539152921 0.24742089009638 
C63   C     0.12169568827420 0.88877355662320 0.74743242157902 
C64   C     0.62155525532611 0.61123472478411 0.25256118546559 
C65   C     0.80310916550295 0.29043670414328 0.11962320067419 
C66   C     0.30318635949384 0.20954810427088 0.88023663479929 
C67   C     0.19673719147598 0.79045847946092 0.38027640482721 
C68   C     0.69673892980417 0.70953458330067 0.61965671940686 
C69   C     0.65559438115920 0.28312154564114 0.91344122445325 
C70   C     0.15572115421647 0.21690359718789 0.08644725382717 
C71   C     0.34412783948322 0.78310566444596 0.58648112928229 
C72   C     0.84432932051154 0.71682894407961 0.41351597970966 
C73   C     0.62039471752452 0.29631418054042 0.78849102638338 
C74   C     0.12049115468423 0.20371999785946 0.21140150159138 
C75   C     0.37933878562879 0.79628945948177 0.71144772754788 
C76   C     0.87956006874497 0.70362727378624 0.28856949472136 
C77   C     0.87220555559480 0.39490322158345 0.61695135231935 
C78   C     0.37217004080674 0.10510845776498 0.38302241946995 
C79   C     0.12783874288718 0.89495607036890 0.88304431602457 
C80   C     0.62767759625545 0.60505373368877 0.11694771971493 
C81   C     0.68748077520847 0.33989917884036 0.59521580744161 
C82   C     0.18747389228784 0.16013108908272 0.40470451426423 
C83   C     0.31234811775976 0.83989080957823 0.90474710820481 
C84   C     0.81242393416150 0.66005005103753 0.09525786466207 
C85   C     0.77355417063736 0.37106084276487 0.53738626300399 
C86   C     0.27350913410054 0.12896273052110 0.46255829144043 
C87   C     0.22636826608464 0.87107749277049 0.96259984185303 
C88   C     0.72632523495157 0.62889493254962 0.03740106428020 
