data_stdin
_audit_creation_method 'critic2'
_audit_creation_date 2023-8-11
_chemical_formula_sum 'C22 H14'
_cell_formula_units_Z 4
_cell_length_a        16.8591023959
_cell_length_b         4.6590724169
_cell_length_c        19.9425968735
_cell_angle_alpha        89.9944
_cell_angle_beta        66.7096
_cell_angle_gamma        89.9953
_cell_volume          1438.800579
_space_group_crystal_system triclinic
_space_group_IT_number 2
_space_group_name_H-M_alt 'P-1'
_space_group_name_Hall '-P 1'
loop_
_symmetry_equiv_pos_site_id
_symmetry_equiv_pos_as_xyz
 1 'x,y,z'
 2 '-x,-y,-z'
loop_
_atom_site_label
_atom_site_type_symbol
_atom_site_fract_x
_atom_site_fract_y
_atom_site_fract_z
H1    H     0.15699052006975 0.32926165895734 0.78711667992803 
H2    H     0.84309256010109 0.82979861932884 0.71290026995964 
H3    H     0.05364935975158 0.38684403004593 0.91337063025050 
H4    H     0.94634817977757 0.88724819102212 0.58661667004436 
H5    H     0.07793668981727 0.76173321000378 0.99405095987930 
H6    H     0.92193688026405 0.26177367106697 0.50590538000234 
H7    H     0.21316151008631 0.04262797941372 0.94793008986588 
H8    H     0.78666823972205 0.54249644998729 0.55204050000911 
H9    H     0.35192413996867 0.15875368894640 0.85271133003038 
H10   H     0.64797020979987 0.65872985026263 0.64727071023267 
H11   H     0.47037725015501 0.02981433909170 0.73436553999788 
H12   H     0.52959255024820 0.53016553997551 0.76570335978951 
H13   H     0.52708920028898 0.72028825963680 0.62906764978605 
H14   H     0.47290053991204 0.22045222927272 0.87095088018222 
H15   H     0.14817039981430 0.81811086956549 0.72580750009420 
H16   H     0.85182027017803 0.31831964020356 0.77426322982750 
H17   H     0.50559669985340 0.34480957063884 0.54960306991793 
H18   H     0.49440433027055 0.84481283071741 0.95039304997362 
H19   H     0.41095337007372 0.06541548020366 0.51089438019086 
H20   H     0.58904635969670 0.56544115910023 0.98910869002453 
H21   H     0.26526662008967 0.97261991106166 0.51213206983320 
H22   H     0.73474247006984 0.47233748024178 0.98783775995476 
H23   H     0.01272266005032 0.79529749986866 0.70867658022798 
H24   H     0.98725788032482 0.29538537041183 0.79140752978608 
H25   H     0.11586339983026 0.11885970967562 0.55084022978696 
H26   H     0.88413803978352 0.61851147899271 0.94914564023481 
H27   H     0.99240901988551 0.42920809039086 0.62463736975142 
H28   H     0.00757956018659 0.92904967088031 0.87540990973697 
C1    C     0.16834146980580 0.49356195993631 0.82091920996598 
C2    C     0.83167170010901 0.99395100011874 0.67909074008561 
C3    C     0.24367213972967 0.66532630924672 0.79120659015832 
C4    C     0.75631543985296 0.16560941940004 0.70880893999925 
C5    C     0.30728093987382 0.63248492990724 0.71697812973514 
C6    C     0.69272161996171 0.13277128046743 0.78305283022968 
C7    C     0.29287448023952 0.48373715959429 0.65917011008507 
C8    C     0.70712691004557 0.98393697940660 0.84085595988870 
C9    C     0.11021404973672 0.52519832925680 0.89239353005686 
C10   C     0.88975912019292 0.02551563939270 0.60759589985197 
C11   C     0.26104599995740 0.85706023048218 0.83987155973948 
C12   C     0.73888784005506 0.35719194955766 0.66013208993373 
C13   C     0.39183009974460 0.73842016052675 0.70174878997361 
C14   C     0.60816430974433 0.23871448026505 0.79829488993444 
C15   C     0.21070529986064 0.47025754961848 0.65161231004289 
C16   C     0.78929634994111 0.97031695043735 0.84841569995709 
C17   C     0.36577971006246 0.36091228945056 0.60212855016588 
C18   C     0.63422072995489 0.86106604909862 0.89789364008794 
C19   C     0.12451225987785 0.73103570000553 0.93820185981794 
C20   C     0.87539394980900 0.23115362050602 0.56177017009339 
C21   C     0.19958218026892 0.89067890020466 0.91234325003890 
C22   C     0.80029965981414 0.39070736943608 0.58764028995864 
C23   C     0.34192031991491 0.00275230896233 0.81613755003561 
C24   C     0.65799931004102 0.50290541939960 0.68386413016425 
C25   C     0.40641811001995 0.93453599919038 0.75077055982714 
C26   C     0.59354712988955 0.43482631941085 0.74927260017388 
C27   C     0.20165712027868 0.28321622007437 0.59809735988456 
C28   C     0.79834706963943 0.78311831031098 0.90190880024014 
C29   C     0.46272545990084 0.64081258080949 0.63889815984382 
C30   C     0.53727161994559 0.14103292005510 0.86113261999073 
C31   C     0.14081555997015 0.65700432936867 0.68936502005711 
C32   C     0.85917919986614 0.15710253969434 0.81068753978961 
C33   C     0.45070782024519 0.43741889899776 0.59434284983136 
C34   C     0.54929332986265 0.93755072947996 0.90567847988155 
C35   C     0.35407635018193 0.17103357059606 0.55052089975970 
C36   C     0.64592808978830 0.67104570912298 0.94948487013235 
C37   C     0.27422866000689 0.12300638893305 0.55043724002814 
C38   C     0.72577580989715 0.62286607065675 0.94955563008380 
C39   C     0.06435517015604 0.64550379097876 0.67931820990635 
C40   C     0.93563596997786 0.14552998090646 0.82074235979063 
C41   C     0.12178723025058 0.26929818899595 0.59037797002377 
C42   C     0.87821424969338 0.76910475955014 0.90963137022098 
C43   C     0.05364664019728 0.44473145042980 0.63074951999464 
C44   C     0.94634656982008 0.94462124975229 0.86929004990304 
