data_stdin
_audit_creation_method 'critic2'
_audit_creation_date 2023-8-11
_chemical_formula_sum 'C22 H14'
_cell_formula_units_Z 4
_cell_length_a        16.8261413843
_cell_length_b         5.4763157983
_cell_length_c        17.4017716448
_cell_angle_alpha        90.0008
_cell_angle_beta        66.4899
_cell_angle_gamma        89.9976
_cell_volume          1470.384222
_space_group_crystal_system monoclinic
_space_group_IT_number 9
_space_group_name_H-M_alt 'Cc'
_space_group_name_Hall 'C -2yc'
loop_
_symmetry_equiv_pos_site_id
_symmetry_equiv_pos_as_xyz
 1 'x,y,z'
 2 'x,-y,-1/2+z'
 3 '-1/2+x,-1/2+y,z'
 4 '-1/2+x,-1/2-y,-1/2+z'
loop_
_atom_site_label
_atom_site_type_symbol
_atom_site_fract_x
_atom_site_fract_y
_atom_site_fract_z
H1    H     0.01774573985687 0.32908373913031 0.94753058020614 
H2    H     0.94151242024197 0.22278541010931 0.85850065976500 
H3    H     0.97082223997568 0.82487630020495 0.78055807983047 
H4    H     0.09112110974767 0.56449028086583 0.78053510025883 
H5    H     0.21199972022071 0.48992849025728 0.82178503986956 
H6    H     0.31036662965677 0.64731628958705 0.88423776016533 
H7    H     0.35353993019051 0.97191989909429 0.95625113996164 
H8    H     0.97324334961391 0.97056431025435 0.06500281026670 
H9    H     0.31935591975848 0.35267887068067 0.03972182026617 
H10   H     0.21650300985724 0.67052203055244 0.11518825020988 
H11   H     0.06625324020586 0.82272456908824 0.18197444005088 
H12   H     0.82447023989742 0.06677041068872 0.16067711982953 
H13   H     0.91072759026172 0.73800831924393 0.23020406989489 
H14   H     0.79047725035696 0.46298383917470 0.23991045980390 
C1    C     0.03197021009625 0.15642538007873 0.91402434024219 
C2    C     0.09708798011283 0.00293940914410 0.91989869008863 
C3    C     0.14617498029524 0.06609380079947 0.96937746998332 
C4    C     0.11937871997187 0.24353995081189 0.03602331005950 
C5    C     0.98851487992265 0.09535298912524 0.86408663988025 
C6    C     0.12107408020580 0.79194332931007 0.86695047011352 
C7    C     0.22898796002463 0.95500823026342 0.94639331974396 
C8    C     0.02982284997015 0.30219339940006 0.08876825969952 
C9    C     0.18468691993542 0.35955716915341 0.05561940998298 
C10   C     0.00666151985893 0.87531411968888 0.81829952031184 
C11   C     0.07302430001024 0.72828479014100 0.81907060985556 
C12   C     0.19643765990672 0.65655670921909 0.85907933017639 
C13   C     0.25048321035100 0.74329441087550 0.89400111978764 
C14   C     0.01113050972570 0.51465156965710 0.14098046027502 
C15   C     0.28989351006611 0.05597787954808 0.97543219972007 
C16   C     0.96000810965949 0.14306441084037 0.09860309025241 
C17   C     0.27035002996448 0.26353851936802 0.02336164001605 
C18   C     0.16387403987160 0.57209761915463 0.10754207992546 
C19   C     0.08077910010047 0.65592793921041 0.14487644020172 
C20   C     0.87590727007765 0.19782002911691 0.15253398985232 
C21   C     0.92392805002314 0.57195039925317 0.19278955985011 
C22   C     0.85683919012013 0.41773077916164 0.19842236972743 
