data_stdin
_audit_creation_method 'critic2'
_audit_creation_date 2023-8-11
_chemical_formula_sum 'C22 H14'
_cell_formula_units_Z 4
_cell_length_a         5.2594796640
_cell_length_b        32.6264118014
_cell_length_c         9.2469644135
_cell_angle_alpha        90.0075
_cell_angle_beta        67.6151
_cell_angle_gamma        89.9880
_cell_volume          1467.191701
_space_group_crystal_system triclinic
_space_group_IT_number 2
_space_group_name_H-M_alt 'P-1'
_space_group_name_Hall '-P 1'
loop_
_symmetry_equiv_pos_site_id
_symmetry_equiv_pos_as_xyz
 1 'x,y,z'
 2 '-x,-y,-z'
loop_
_atom_site_label
_atom_site_type_symbol
_atom_site_fract_x
_atom_site_fract_y
_atom_site_fract_z
H1    H     0.48032194641956 0.84366899090110 0.75316002128085 
H2    H     0.51966371799085 0.34367166783157 0.74672447949235 
H3    H     0.49084989944451 0.79635724248189 0.54601148173191 
H4    H     0.50911316223854 0.29633437624490 0.95377825669407 
H5    H     0.06689705916636 0.75678030712614 0.56783596716486 
H6    H     0.93311662991526 0.25673640114079 0.93193418310036 
H7    H     0.65701468175968 0.76032494404321 0.81358546785753 
H8    H     0.34313150371010 0.26029926871831 0.68627442471288 
H9    H     0.42462028173361 0.78502437825338 0.08168484149443 
H10   H     0.57562040853077 0.28501712626645 0.41824571422029 
H11   H     0.45103726331595 0.82104219454310 0.31019280249690 
H12   H     0.54921165153715 0.32104549969837 0.18976854126229 
H13   H     0.70028548137955 0.86163709974717 0.42973867852706 
H14   H     0.29990276351197 0.36164683947717 0.07024217875292 
H15   H     0.11861547578293 0.89793745594518 0.74829668489834 
H16   H     0.88120877677874 0.39793446103233 0.75174622513236 
H17   H     0.09751421041653 0.90530768403918 0.40820963879728 
H18   H     0.90253410217345 0.40532178744095 0.09179029661045 
H19   H     0.50734187341380 0.94228606732556 0.25173345409195 
H20   H     0.49253682550235 0.44229783299874 0.24828474144597 
H21   H     0.81069350482536 0.97182401590057 0.99890937922766 
H22   H     0.18904139671032 0.47184119889702 0.50114048692774 
H23   H     0.36271309095145 0.93866409514338 0.51475628569745 
H24   H     0.63698713982605 0.43867598961386 0.98531033084307 
H25   H     0.89297917754682 0.98732762394727 0.73025259769411 
H26   H     0.10672619107189 0.48735853410395 0.76979084076125 
H27   H     0.76436755550163 0.98189355327618 0.49738745048069 
H28   H     0.23531005625736 0.48192693286058 0.00266985909955 
C1    C     0.29495498116282 0.82691789652245 0.76513079187035 
C2    C     0.70505614276168 0.32691275251083 0.73475155170678 
C3    C     0.05598987139937 0.83198755355417 0.90281705298410 
C4    C     0.94406599723292 0.33198491389070 0.59710836706852 
C5    C     0.04406236373715 0.85937910311798 0.02941317492643 
C6    C     0.95598230791231 0.35938305406214 0.47055127791963 
C7    C     0.23070658894413 0.89298575432470 0.01583660962408 
C8    C     0.76924211287128 0.39299305380623 0.48415785096063 
C9    C     0.30050032262070 0.80020062035580 0.64783157181322 
C10   C     0.69949371968526 0.30018039348789 0.85199439146967 
C11   C     0.82776215569794 0.80552082647764 0.92237474645245 
C12   C     0.17235746959604 0.30551207618392 0.57753644054320 
C13   C     0.83967584751293 0.85082668436378 0.17997978461716 
C14   C     0.16044761809078 0.35083172384975 0.31998617092779 
C15   C     0.37491737483788 0.91611083914079 0.87352358019511 
C16   C     0.62493388497512 0.41611984580921 0.62649703720844 
C17   C     0.26198906531913 0.90676814844379 0.15446318451300 
C18   C     0.73796760530106 0.40677805766020 0.34553682140620 
C19   C     0.06571399723230 0.77712472998955 0.66160362429751 
C20   C     0.93431801409562 0.27709455048522 0.83821268583397 
C21   C     0.83537715523063 0.77936223603609 0.79843816897226 
C22   C     0.16472459274728 0.27934046596640 0.70142454525466 
C23   C     0.60162661801980 0.80398185298325 0.06944226699413 
C24   C     0.39856658880651 0.30397769826743 0.43049312245387 
C25   C     0.61565714699598 0.82413411401632 0.19541637029532 
C26   C     0.38454324501642 0.32413579857704 0.30453835234515 
C27   C     0.58795077282184 0.94410210555878 0.86853739421022 
C28   C     0.41184233402985 0.44411783230995 0.63149593461466 
C29   C     0.85747998198343 0.86884019186385 0.31576604476333 
C30   C     0.14264394721117 0.36884909243335 0.18421444626400 
C31   C     0.29533255779395 0.91593702875462 0.74321713435882 
C32   C     0.70447294526108 0.41594232186165 0.75682086214659 
C33   C     0.07432520644499 0.89365757021732 0.30355178485562 
C34   C     0.92572235517767 0.39366812007578 0.19643966448063 
C35   C     0.47741446092129 0.93457294892786 0.14478932475687 
C36   C     0.52245539882604 0.43458510064298 0.35522912034933 
C37   C     0.64391908732276 0.95118070914795 0.00563537403832 
C38   C     0.35587840276822 0.45119589074185 0.49439786612391 
C39   C     0.43204990352659 0.93919750409160 0.61159074981835 
C40   C     0.56768909858325 0.43921110425610 0.88846084179891 
C41   C     0.72968399809300 0.96676780055186 0.73055586849579 
C42   C     0.27004726904173 0.46679204612449 0.76948969021205 
C43   C     0.65651888708533 0.96409528218896 0.60259305079067 
C44   C     0.34319283417121 0.46411978867335 0.89745900621913 
