data_stdin
_audit_creation_method 'critic2'
_audit_creation_date 2023-8-11
_chemical_formula_sum 'C22 H14'
_cell_formula_units_Z 4
_cell_length_a         8.1452455226
_cell_length_b        12.3283115401
_cell_length_c        14.1424672700
_cell_angle_alpha        90.0000
_cell_angle_beta        90.0000
_cell_angle_gamma        90.0017
_cell_volume          1420.145894
_space_group_crystal_system orthorhombic
_space_group_IT_number 19
_space_group_name_H-M_alt 'P2_12_12_1'
_space_group_name_Hall 'P 2ac 2ab'
loop_
_symmetry_equiv_pos_site_id
_symmetry_equiv_pos_as_xyz
 1 'x,y,z'
 2 '-1/2-x,-y,-1/2+z'
 3 '-1/2+x,-1/2-y,-z'
 4 '-x,-1/2+y,-1/2-z'
loop_
_atom_site_label
_atom_site_type_symbol
_atom_site_fract_x
_atom_site_fract_y
_atom_site_fract_z
H1    H     0.75401638974284 0.03680648007230 0.40690925992426 
H2    H     0.81282870034576 0.84380819995686 0.43359508018712 
H3    H     0.58635733022153 0.70715613978091 0.42932044988422 
H4    H     0.29789486005721 0.76976764013584 0.41411127024571 
H5    H     0.09745384017932 0.91556716961391 0.40580409976697 
H6    H     0.03536844970170 0.11314135017708 0.41374606025726 
H7    H     0.12704962035997 0.29730752960289 0.43261945986656 
H8    H     0.63660754033642 0.03944587969799 0.23262107998558 
H9    H     0.35006224022016 0.43537023998494 0.42518931995625 
H10   H     0.62475872948462 0.48674097979367 0.38402333986478 
H11   H     0.89668006961968 0.44394969978264 0.31566801032155 
H12   H     0.87738756954501 0.01753145015076 0.13035830971634 
H13   H     0.07240687056427 0.32135765977271 0.22834260009681 
H14   H     0.10477994015556 0.15273977006150 0.13350635986458 
C1    C     0.65381053958098 0.97869726997124 0.40630901021814 
C2    C     0.49144166973622 0.01653284010212 0.39169109028834 
C3    C     0.45173422043655 0.13031141001115 0.37703282971271 
C4    C     0.56802742981443 0.21271518977298 0.34921352976680 
C5    C     0.68705450963799 0.86999736996249 0.42095807007701 
C6    C     0.36122658009981 0.93923730962405 0.40070019021579 
C7    C     0.28804011038625 0.16327443982923 0.39756948020756 
C8    C     0.71361210049652 0.19332112040031 0.29225061973304 
C9    C     0.53214722961537 0.32243345001734 0.37295709014585 
C10   C     0.55912591012212 0.79309949981743 0.42049523015796 
C11   C     0.39868081058154 0.82775664016135 0.41162649977330 
C12   C     0.19504352018563 0.97584390998188 0.40248372970715 
C13   C     0.16083279028946 0.08412521009074 0.40551924999322 
C14   C     0.83500658978393 0.27670623984817 0.28442350986253 
C15   C     0.25166195061199 0.27481691975571 0.41264616986118 
C16   C     0.73277480057303 0.10053146014996 0.23402060004542 
C17   C     0.37369163970590 0.35089452005850 0.40713319972983 
C18   C     0.65408782042923 0.40452197962472 0.36144358001092 
C19   C     0.80412815040354 0.38114861997460 0.32386018019459 
C20   C     0.86904110938835 0.08759981990593 0.17686248026731 
C21   C     0.97829555977169 0.25855002988273 0.22979758006152 
C22   C     0.99613651996878 0.16522004035512 0.17697782032762 
