data_stdin
_audit_creation_method 'critic2'
_audit_creation_date 2023-8-11
_chemical_formula_sum 'C22 H14'
_cell_formula_units_Z 8
_cell_length_a        21.2356983238
_cell_length_b         8.7846775732
_cell_length_c        20.1714502041
_cell_angle_alpha        89.9999
_cell_angle_beta        50.2529
_cell_angle_gamma        89.9999
_cell_volume          2893.241705
_space_group_crystal_system monoclinic
_space_group_IT_number 15
_space_group_name_H-M_alt 'C2/c'
_space_group_name_Hall '-C 2yc'
loop_
_symmetry_equiv_pos_site_id
_symmetry_equiv_pos_as_xyz
 1 'x,y,z'
 2 '-x,-y,-z'
 3 '-x,y,-1/2-z'
 4 'x,-y,-1/2+z'
 5 '-1/2+x,-1/2+y,z'
 6 '-1/2-x,-1/2-y,-z'
 7 '-1/2-x,-1/2+y,-1/2-z'
 8 '-1/2+x,-1/2-y,-1/2+z'
loop_
_atom_site_label
_atom_site_type_symbol
_atom_site_fract_x
_atom_site_fract_y
_atom_site_fract_z
H1    H     0.39902608264867 0.59915227554150 0.78693099536055 
H2    H     0.35249693910545 0.80810019899978 0.74707968629681 
H3    H     0.21416086148919 0.80158504994409 0.78843613242871 
H4    H     0.12623111767893 0.57242327760297 0.86252915363881 
H5    H     0.10640675084668 0.31476208863794 0.91722945214288 
H6    H     0.16980640512505 0.07980741460291 0.91988154112212 
H7    H     0.28644500939870 0.94934869133706 0.88641681109482 
H8    H     0.29773815223491 0.60754354755222 0.95276594686488 
H9    H     0.42196657386827 0.95440009307975 0.85131467694218 
H10   H     0.52742915890094 0.08948440163458 0.83665055264204 
H11   H     0.57957788077299 0.32502969817228 0.85564258267684 
H12   H     0.33607762929502 0.81842107806542 0.00004908364594 
H13   H     0.55515088991051 0.57988224604022 0.90931249101098 
H14   H     0.46669320086415 0.81105730475783 0.97555446646985 
C1    C     0.33791991315436 0.59487220731738 0.80684452490786 
C2    C     0.28800321331181 0.46594850215812 0.85278753825955 
C3    C     0.31552705357832 0.33687430578257 0.87343884476720 
C4    C     0.38198754118487 0.33958595618099 0.87602386601114 
C5    C     0.31179966279984 0.71244606958072 0.78407713838537 
C6    C     0.21140345246024 0.45694696203028 0.86985477471094 
C7    C     0.27691798216318 0.19465302708200 0.88640203438805 
C8    C     0.40565714296387 0.47134598208728 0.89935505296526 
C9    C     0.42254275799453 0.19962748863287 0.86271147108519 
C10   C     0.23388990753341 0.70785290526982 0.80660316599026 
C11   C     0.18512634266025 0.58105800006874 0.84807098578132 
C12   C     0.16582066223831 0.31840192424356 0.90167442135729 
C13   C     0.20023010190911 0.18963771774526 0.90401112122338 
C14   C     0.47752575242362 0.46362591514128 0.89155526278767 
C15   C     0.31551381668996 0.05669701989087 0.87991882400589 
C16   C     0.35564713545088 0.60244630592109 0.94002068702366 
C17   C     0.38955363453759 0.05961624353408 0.86177642126470 
C18   C     0.49525758424479 0.19750438187416 0.85302107603978 
C19   C     0.52380569599493 0.32623865880470 0.86365157424533 
C20   C     0.37693387756494 0.72136390995554 0.96706415029169 
C21   C     0.49955342720571 0.58897567154531 0.91718618748411 
C22   C     0.45053340009507 0.71657954481364 0.95400212888447 
