data_stdin
_audit_creation_method 'critic2'
_audit_creation_date 2023-8-11
_chemical_formula_sum 'C22 H14'
_cell_formula_units_Z 4
_cell_length_a         8.3288734547
_cell_length_b        15.6421984300
_cell_length_c        10.9968334199
_cell_angle_alpha        90.0001
_cell_angle_beta        93.9613
_cell_angle_gamma        90.0010
_cell_volume          1429.265476
_space_group_crystal_system monoclinic
_space_group_IT_number 14
_space_group_name_H-M_alt 'P2_1/c'
_space_group_name_Hall '-P 2ybc'
loop_
_symmetry_equiv_pos_site_id
_symmetry_equiv_pos_as_xyz
 1 'x,y,z'
 2 '-x,-y,-z'
 3 '-x,-1/2+y,-1/2-z'
 4 'x,-1/2-y,-1/2+z'
loop_
_atom_site_label
_atom_site_type_symbol
_atom_site_fract_x
_atom_site_fract_y
_atom_site_fract_z
H1    H     0.27857362027737 0.14305051031867 0.41922959015158 
H2    H     0.35644598001608 0.99644628975583 0.37265816994628 
H3    H     0.14612719035117 0.88801203031706 0.30480149026400 
H4    H     0.85918015965009 0.92817996013147 0.30019612029006 
H5    H     0.64867721949840 0.03117312023489 0.32925443016700 
H6    H     0.56706583944066 0.17003222018946 0.41637963955118 
H7    H     0.64033712941550 0.29919185998472 0.52813631974796 
H8    H     0.15617034947255 0.20409237989526 0.21021090034273 
H9    H     0.84527861033469 0.40648188975467 0.60005535032723 
H10   H     0.11035176956029 0.46637724022741 0.59502966000888 
H11   H     0.37391622051597 0.47432745990450 0.50465799964636 
H12   H     0.38871638023277 0.23121675007586 0.09348535016131 
H13   H     0.54638598031957 0.43050400968125 0.34380616005695 
H14   H     0.59332985009071 0.34140502021504 0.16318557029839 
C1    C     0.18629916942009 0.09763774983076 0.38768121020400 
C2    C     0.02327359997619 0.12425687016725 0.37766274017505 
C3    C     0.97258147999857 0.21008802030712 0.40807239009810 
C4    C     0.07685609011181 0.28391682014062 0.41979334984885 
C5    C     0.23008796994875 0.01470428000976 0.36186578998482 
C6    C     0.90397218994547 0.06007543990460 0.34912682982481 
C7    C     0.80958675010665 0.22070020975373 0.43686793007856 
C8    C     0.21770974043395 0.29731424984114 0.35111223964014 
C9    C     0.03252581964302 0.35181127992478 0.49697726028643 
C10   C     0.11237886981764 0.95341827971273 0.32543666032086 
C11   C     0.95187886950084 0.97589411986895 0.32136791970943 
C12   C     0.73759826000914 0.08001463010865 0.35578556967639 
C13   C     0.69298430050943 0.15638843021300 0.40316702962415 
C14   C     0.32633196028990 0.36591791992832 0.38391736962229 
C15   C     0.76412328040591 0.29389352997246 0.50319348975411 
C16   C     0.24337994054923 0.25163216011364 0.24306227977279 
C17   C     0.87587278028800 0.35409495971209 0.54085911036303 
C18   C     0.14411528970693 0.41883541027860 0.52905828010771 
C19   C     0.28920510050516 0.42341442982713 0.47873656041007 
C20   C     0.37475723029030 0.26762520015971 0.17641694011329 
C21   C     0.46277189975241 0.37940823991347 0.31607659028495 
C22   C     0.48822168034225 0.33050746020351 0.21463463966003 
