data_stdin
_audit_creation_method 'critic2'
_audit_creation_date 2023-8-11
_chemical_formula_sum 'C22 H14'
_cell_formula_units_Z 4
_cell_length_a         5.8026494025
_cell_length_b         9.7003119142
_cell_length_c        25.0577807608
_cell_angle_alpha        90.0006
_cell_angle_beta        87.8078
_cell_angle_gamma        90.0008
_cell_volume          1409.407808
_space_group_crystal_system monoclinic
_space_group_IT_number 14
_space_group_name_H-M_alt 'P2_1/c'
_space_group_name_Hall '-P 2ybc'
loop_
_symmetry_equiv_pos_site_id
_symmetry_equiv_pos_as_xyz
 1 'x,y,z'
 2 '-x,-y,-z'
 3 '-x,-1/2+y,-1/2-z'
 4 'x,-1/2-y,-1/2+z'
loop_
_atom_site_label
_atom_site_type_symbol
_atom_site_fract_x
_atom_site_fract_y
_atom_site_fract_z
H1    H     0.48279621010190 0.18438443010662 0.94995223986561 
H2    H     0.40419769014668 0.06306796026357 0.03452087015529 
H3    H     0.02213904936135 0.08235659987229 0.08181516000645 
H4    H     0.72728691008776 0.24280457012874 0.04679037992222 
H5    H     0.62120236029866 0.42198819015191 0.98604701007114 
H6    H     0.73615084949414 0.58723152995214 0.91443055988741 
H7    H     0.01502331961548 0.67318897043504 0.85005156991033 
H8    H     0.19261157014286 0.07778530021377 0.88329277987046 
H9    H     0.38379182029135 0.64883043953220 0.79671486996035 
H10   H     0.71309930955510 0.51557962025928 0.76863727994924 
H11   H     0.94107952057791 0.29882636965838 0.76844877016438 
H12   H     0.36856348998576 0.85168733003440 0.86354204013641 
H13   H     0.95196893989070 0.05119421973539 0.78587909001351 
H14   H     0.75717231998508 0.83690448992231 0.81783812991382 
C1    C     0.31407382990082 0.19452637003231 0.96981957985245 
C2    C     0.14672540968627 0.28091592981856 0.94716982018897 
C3    C     0.19014300067235 0.35993539972051 0.89843616997106 
C4    C     0.37196691962588 0.33213128034264 0.85888663009047 
C5    C     0.27041033067779 0.12623528988398 0.01757728988112 
C6    C     0.93610639995597 0.30242061009751 0.97765852002460 
C7    C     0.05120792006704 0.47910825048650 0.89128963990854 
C8    C     0.47386804079157 0.19741295997988 0.84848452004566 
C9    C     0.44986548081906 0.44205075995623 0.82506692014572 
C10   C     0.05481271018886 0.13874929031329 0.04478488000256 
C11   C     0.89111063076472 0.22618012033413 0.02507840014920 
C12   C     0.78181082967344 0.40882757007874 0.96274980013300 
C13   C     0.84374202061935 0.49845989013219 0.92286122011579 
C14   C     0.68519689919110 0.18730041037563 0.81726560004292 
C15   C     0.12130179923631 0.58116514969806 0.85329345004961 
C16   C     0.36190306054706 0.07271576968498 0.86341235001473 
C17   C     0.32288462957008 0.56731160983548 0.82363015004018 
C18   C     0.65505295964526 0.42707551950805 0.79230549996275 
C19   C     0.77788471068431 0.30701751994309 0.79124595004800 
C20   C     0.46069532923830 0.94571141962611 0.85233207994341 
C21   C     0.78843721035435 0.05636328966503 0.80859955015587 
C22   C     0.67930374986039 0.93724228971748 0.82603703004298 
