data_stdin
_audit_creation_method 'critic2'
_audit_creation_date 2023-8-11
_chemical_formula_sum 'C22 H14'
_cell_formula_units_Z 8
_cell_length_a        32.6037881909
_cell_length_b         5.4609224850
_cell_length_c        17.2661974690
_cell_angle_alpha        90.0021
_cell_angle_beta        75.2496
_cell_angle_gamma        90.0287
_cell_volume          2972.878056
_space_group_crystal_system triclinic
_space_group_IT_number 2
_space_group_name_H-M_alt 'P-1'
_space_group_name_Hall '-P 1'
loop_
_symmetry_equiv_pos_site_id
_symmetry_equiv_pos_as_xyz
 1 'x,y,z'
 2 '-x,-y,-z'
 3 '-1/2+x,-1/2+y,z'
 4 '-1/2-x,-1/2-y,-z'
loop_
_atom_site_label
_atom_site_type_symbol
_atom_site_fract_x
_atom_site_fract_y
_atom_site_fract_z
H1    H     0.06797699016572 0.01831838994364 0.45219870987487 
H2    H     0.93203030983940 0.01804842046960 0.04778983027494 
H3    H     0.99647758996269 0.92227963964427 0.43900255974457 
H4    H     0.00352166000568 0.92221389021093 0.06099280987401 
H5    H     0.98202632989659 0.52899390075703 0.37901057001836 
H6    H     0.01793526989429 0.52897380994080 0.12099938007786 
H7    H     0.04219444996240 0.24695630938926 0.32026791991894 
H8    H     0.95773917009289 0.24679108945587 0.17975669027813 
H9    H     0.11812919003367 0.16454189942660 0.27914017020142 
H10   H     0.88179655989700 0.16419458082194 0.22088756006605 
H11   H     0.19142555992301 0.31199536992296 0.26453968013914 
H12   H     0.80851606001309 0.31149034087199 0.23549049019692 
H13   H     0.24076493992026 0.61342360956015 0.28881487989539 
H14   H     0.75920069003639 0.61280769062672 0.21118203992843 
H15   H     0.08196549987492 0.66943319054449 0.54930617988617 
H16   H     0.91802638008053 0.66908183922274 0.95069510986715 
H17   H     0.25572428985663 0.99288291072121 0.35767370006053 
H18   H     0.74428649006415 0.99214204015894 0.14227486982458 
H19   H     0.23215877002915 0.31926302088125 0.45159978996155 
H20   H     0.76788550985663 0.31849772009243 0.04832079005191 
H21   H     0.17972567997312 0.49027954932130 0.56915397028250 
H22   H     0.82033180010858 0.48954271938476 0.93073923014105 
H23   H     0.03838321005070 0.79248211985930 0.68114378017295 
H24   H     0.96163450000268 0.79223254064841 0.81886924021444 
H25   H     0.11663136997253 0.42790321945975 0.67792444003234 
H26   H     0.88342741015791 0.42732766965203 0.82199920971597 
H27   H     0.05354712990968 0.18301993992122 0.74467362971124 
H28   H     0.94650760000413 0.18267986967081 0.75530045011535 
C1    C     0.06232561990656 0.84478507945916 0.42595460979640 
C2    C     0.93766722992770 0.84453738978001 0.07403919000417 
C3    C     0.09681576991155 0.68310944944192 0.39721922009336 
C4    C     0.90316176014232 0.68277114061046 0.10277864007752 
C5    C     0.13973662012344 0.73834455057860 0.40194214013554 
C6    C     0.86024695997927 0.73789102938493 0.09804736983589 
C7    C     0.15059748986189 0.91505149019982 0.45566578014043 
C8    C     0.84940630004765 0.91452492975714 0.04430251013669 
C9    C     0.02204532989175 0.79110534973471 0.41865855016843 
C10   C     0.97794187997537 0.79097036032039 0.08134048022716 
C11   C     0.08924481992951 0.47077646925394 0.35419913005130 
C12   C     0.91071131995253 0.47047312910089 0.14581016000130 
C13   C     0.17337592014015 0.61881005088518 0.34574520995720 
C14   C     0.82659450987362 0.61830736989036 0.15425585989575 
C15   C     0.12352186009849 0.98497449948920 0.53322218980204 
C16   C     0.87649201008268 0.98447726090513 0.96674164012062 
C17   C     0.19195416992749 0.01984474998571 0.43371241999406 
C18   C     0.80806000995249 0.01921235010485 0.06624010026256 
C19   C     0.01403730008303 0.57000487008241 0.38321291975058 
C20   C     0.98592826999902 0.56989787975651 0.11679497019589 
C21   C     0.04729793010909 0.41405434068431 0.35087233977321 
C22   C     0.95265225009262 0.41386369031739 0.14914160979469 
C23   C     0.12425156005932 0.32897248934901 0.31016204980852 
C24   C     0.87568928991971 0.32859995086952 0.18985772013255 
C25   C     0.16469948995900 0.40989125058126 0.30263459984858 
C26   C     0.83525039011907 0.40943436090306 0.19738279015942 
C27   C     0.13437273984469 0.19514268085677 0.57358948011159 
C28   C     0.86566015995276 0.19456876008944 0.92634818014720 
C29   C     0.21563840994917 0.70756528088114 0.33241491022121 
C30   C     0.78434097998087 0.70696123010226 0.16757531012440 
C31   C     0.08887698002499 0.84056616082122 0.57543377022737 
C32   C     0.91113012007660 0.84017663964825 0.92455355985384 
C33   C     0.22402545990498 0.91313199941942 0.37123397013524 
C34   C     0.77597711016960 0.91246787088679 0.12873046971648 
C35   C     0.20152716998260 0.23105399974369 0.47468657029148 
C36   C     0.79850689000133 0.23034640054216 0.02524033973681 
C37   C     0.17290081003311 0.32379782959335 0.53993076982908 
C38   C     0.82714136014050 0.32311475911196 0.95998419993557 
C39   C     0.06437911008544 0.90972837068507 0.64991513996482 
C40   C     0.93564208004651 0.90939071069483 0.85007517993888 
C41   C     0.10809864006734 0.26553731920822 0.64891913026408 
C42   C     0.89194719992987 0.26501642091207 0.85102065027177 
C43   C     0.07322322001936 0.12731855061602 0.68647126021302 
C44   C     0.92681925997955 0.12692709068024 0.81349782996810 
