data_stdin
_audit_creation_method 'critic2'
_audit_creation_date 2023-8-11
_chemical_formula_sum 'C22 H14'
_cell_formula_units_Z 4
_cell_length_a        10.9597602444
_cell_length_b        13.3475308600
_cell_length_c        10.2335137550
_cell_angle_alpha        90.0000
_cell_angle_beta        70.7990
_cell_angle_gamma        90.0000
_cell_volume          1413.739292
_space_group_crystal_system monoclinic
_space_group_IT_number 14
_space_group_name_H-M_alt 'P2_1/c'
_space_group_name_Hall '-P 2ybc'
loop_
_symmetry_equiv_pos_site_id
_symmetry_equiv_pos_as_xyz
 1 'x,y,z'
 2 '-x,-y,-z'
 3 '-1/2-x,-1/2+y,-1/2-z'
 4 '-1/2+x,-1/2-y,-1/2+z'
loop_
_atom_site_label
_atom_site_type_symbol
_atom_site_fract_x
_atom_site_fract_y
_atom_site_fract_z
H1    H     0.23986648998992 0.85727922006935 0.10459596982981 
H2    H     0.20292327977244 0.85646609015594 0.88108336971824 
H3    H     0.98133292950411 0.88165622021217 0.86925894033331 
H4    H     0.79459220972684 0.89210526027524 0.08684930957530 
H5    H     0.70611250986621 0.87710853978732 0.33665088963765 
H6    H     0.73838948010094 0.83568795007469 0.55914380046137 
H7    H     0.87968370008659 0.78389053965452 0.68424290999751 
H8    H     0.17237739945559 0.03352466002620 0.19440671047280 
H9    H     0.09986521984647 0.76974521989254 0.70171376947922 
H10   H     0.32401823994785 0.81278545972419 0.62094520007817 
H11   H     0.51046125978244 0.89971551999571 0.45895038965233 
H12   H     0.34838572987147 0.14506716003639 0.06465515993211 
H13   H     0.59629500024880 0.01742386026374 0.26986259013060 
H14   H     0.56377494019709 0.13471926973451 0.09528725003405 
C1    C     0.14226957966226 0.86678135962913 0.10193161046974 
C2    C     0.03910443948102 0.87792362033736 0.22804667025390 
C3    C     0.05682705978993 0.87483886035073 0.36270309022715 
C4    C     0.17788054041227 0.89138134029185 0.38743776971494 
C5    C     0.12142023960026 0.86637384026044 0.97582967024639 
C6    C     0.91097881983666 0.88131072013097 0.22051797049968 
C7    C     0.94724622964933 0.84686187995313 0.47739667989632 
C8    C     0.28203380005118 0.95543829020020 0.30405438987487 
C9    C     0.19261087939381 0.84827702964580 0.50890480047486 
C10   C     0.99609141036478 0.87860922995578 0.96915217021374 
C11   C     0.89273355038640 0.88554849017082 0.08999160969337 
C12   C     0.80278418991533 0.87278676968669 0.34410074039783 
C13   C     0.82057470002720 0.85075010036729 0.46675253003801 
C14   C     0.40330995015320 0.95598355970059 0.32900922028338 
C15   C     0.96401539985605 0.81054899024773 0.60111674035286 
C16   C     0.26590554030165 0.02678924996663 0.20840188006934 
C17   C     0.08500708969676 0.80436732029139 0.61172751024699 
C18   C     0.31463592996393 0.85078014028690 0.53058678986119 
C19   C     0.41808892046298 0.89896569017642 0.44066185949690 
C20   C     0.36469203992178 0.09004945998070 0.13563470972266 
C21   C     0.50463842991422 0.01923978967814 0.24975540012124 
C22   C     0.48645351980368 0.08502626011660 0.15387570954992 
