data_stdin
_audit_creation_method 'critic2'
_audit_creation_date 2023-8-11
_chemical_formula_sum 'C22 H14'
_cell_formula_units_Z 8
_cell_length_a        16.8273877701
_cell_length_b        20.4589031701
_cell_length_c         8.4551748819
_cell_angle_alpha        90.0009
_cell_angle_beta        89.9994
_cell_angle_gamma        90.0003
_cell_volume          2910.862185
_space_group_crystal_system orthorhombic
_space_group_IT_number 61
_space_group_name_H-M_alt 'Pbca'
_space_group_name_Hall '-P 2ac 2ab'
loop_
_symmetry_equiv_pos_site_id
_symmetry_equiv_pos_as_xyz
 1 'x,y,z'
 2 '-x,-y,-z'
 3 '-x,-1/2+y,-1/2-z'
 4 'x,-1/2-y,-1/2+z'
 5 '-1/2-x,-y,-1/2+z'
 6 '-1/2+x,y,-1/2-z'
 7 '-1/2+x,-1/2-y,-z'
 8 '-1/2-x,-1/2+y,z'
loop_
_atom_site_label
_atom_site_type_symbol
_atom_site_fract_x
_atom_site_fract_y
_atom_site_fract_z
H1    H     0.29086588407443 0.46628510527522 0.79967509319997 
H2    H     0.28481130539555 0.58489551737594 0.81807635037092 
H3    H     0.18099132899170 0.63953647144749 0.98659688307384 
H4    H     0.07793145315832 0.57116313194090 0.11608752719987 
H5    H     0.01734497748701 0.46656886632346 0.16592852115800 
H6    H     0.01160277471725 0.34707903449148 0.12079040638856 
H7    H     0.06285554012361 0.24963635673294 0.00026084214428 
H8    H     0.32974153071058 0.43366249655400 0.08515529860281 
H9    H     0.16305116694578 0.19366926987721 0.83318981390344 
H10   H     0.29091259616535 0.19238892994310 0.70461519552260 
H11   H     0.42645235926722 0.23686664847545 0.67309878184881 
H12   H     0.46983030692508 0.46289266066918 0.10132237682397 
H13   H     0.52854894011536 0.31362766103396 0.76326628712233 
H14   H     0.57103773435473 0.40602197477036 0.93317746012416 
C1    C     0.24597799350178 0.48837478460151 0.87461490421853 
C2    C     0.19225050563854 0.44777317083289 0.95831898843525 
C3    C     0.19539259480925 0.37675140397755 0.95417982875671 
C4    C     0.26205689809719 0.33862689129585 0.89741400285002 
C5    C     0.24195329979734 0.55576791969786 0.88418236333873 
C6    C     0.12835083717467 0.47941337240502 0.03988298033846 
C7    C     0.12565429296602 0.34223794933898 0.00129878706569 
C8    C     0.34490110941932 0.35832652141754 0.90685940247596 
C9    C     0.24667352230308 0.27432621610517 0.84063327857474 
C10   C     0.18294495990546 0.58650563460485 0.97633200259270 
C11   C     0.12614018694524 0.54852350738392 0.04994612281070 
C12   C     0.06544690564084 0.44141734811818 0.10522004083981 
C13   C     0.06267755429125 0.37547368854131 0.08107846717605 
C14   C     0.40405441899586 0.32152974858387 0.82341581685970 
C15   C     0.11677089834340 0.27483589478377 0.96335249085617 
C16   C     0.37195026963916 0.40822051146864 0.00995915246973 
C17   C     0.17276200756086 0.24350238564629 0.87401233931129 
C18   C     0.30662162382175 0.23929170561838 0.75645934852286 
C19   C     0.38180905045335 0.26351180503214 0.74072704030884 
C20   C     0.45146407202184 0.42456020149970 0.02017779786284 
C21   C     0.48483457346104 0.34087319501809 0.83153280519966 
C22   C     0.50859827688135 0.39206612879327 0.92703789319671 
