data_stdin
_audit_creation_method 'critic2'
_audit_creation_date 2023-8-11
_chemical_formula_sum 'C22 H14'
_cell_formula_units_Z 8
_cell_length_a        40.7839099681
_cell_length_b         8.9211196749
_cell_length_c         7.7252351338
_cell_angle_alpha        89.9999
_cell_angle_beta        90.0013
_cell_angle_gamma        90.0045
_cell_volume          2810.735185
_space_group_crystal_system orthorhombic
_space_group_IT_number 60
_space_group_name_H-M_alt 'Pbcn'
_space_group_name_Hall '-P 2n 2ab'
loop_
_symmetry_equiv_pos_site_id
_symmetry_equiv_pos_as_xyz
 1 'x,y,z'
 2 '-x,-y,-z'
 3 '-1/2-x,-1/2-y,-1/2+z'
 4 '-1/2+x,-1/2+y,-1/2-z'
 5 '-1/2+x,-1/2-y,-z'
 6 '-1/2-x,-1/2+y,z'
 7 '-x,y,-1/2-z'
 8 'x,-y,-1/2+z'
loop_
_atom_site_label
_atom_site_type_symbol
_atom_site_fract_x
_atom_site_fract_y
_atom_site_fract_z
H1    H     0.12132297992748 0.37040989015619 0.23416401009972 
H2    H     0.08498429000932 0.58487520997322 0.18353734937122 
H3    H     0.02824391993855 0.58586658996359 0.29920177025763 
H4    H     0.00700767988185 0.36057892045205 0.45203996018826 
H5    H     0.01450465988838 0.10901529953378 0.56486413055327 
H6    H     0.04692444006557 0.87339581964453 0.56418785003754 
H7    H     0.09285909997257 0.73309284040103 0.46712984962081 
H8    H     0.13330060991947 0.37057515982835 0.54835752935416 
H9    H     0.14875824995600 0.71960248045577 0.33931530983767 
H10   H     0.19660394990609 0.83869490052060 0.22985186972783 
H11   H     0.23270111010443 0.06312709030427 0.20744866958593 
H12   H     0.17421619990452 0.56765090977571 0.59561157032426 
H13   H     0.24555663987804 0.31193661016359 0.31150408994109 
H14   H     0.23033222995843 0.54418541015490 0.47046933031691 
C1    C     0.09684603001668 0.36936927055335 0.28906436983621 
C2    C     0.08642047000366 0.24209518970180 0.38434047966941 
C3    C     0.10685256003391 0.11031554986696 0.40956128940477 
C4    C     0.14178918010776 0.10287774973198 0.37713639016885 
C5    C     0.07639971996981 0.49005348003488 0.25950807950663 
C6    C     0.05284174011301 0.23948394980781 0.43971350978743 
C7    C     0.09044455000882 0.97493757049168 0.45504297035866 
C8    C     0.16474368010179 0.22672157945864 0.39590392014290 
C9    C     0.15554842003844 0.96016123948428 0.33763252058441 
C10   C     0.04407215011791 0.48985737020500 0.32319270985834 
C11   C     0.03247697005563 0.36549998970679 0.40979146045768 
C12   C     0.03956821000273 0.10709254029070 0.51597025955119 
C13   C     0.05742918003611 0.97786091985091 0.51640041031554 
C14   C     0.19775669007647 0.21001144950436 0.33510930983745 
C15   C     0.10633041006809 0.83442864994084 0.43443719047352 
C16   C     0.15745466007713 0.35846769969347 0.49126340024685 
C17   C     0.13717253999492 0.82706417006195 0.36606177979426 
C18   C     0.18821676002850 0.94863296010038 0.27246433982759 
C19   C     0.20812050998997 0.07108367992542 0.26182385055016 
C20   C     0.18048885998263 0.46971759965010 0.51838229975210 
C21   C     0.22070451993034 0.32734889004423 0.36023952996991 
C22   C     0.21235090003296 0.45574776053456 0.44975460015595 
