data_stdin
_audit_creation_method 'critic2'
_audit_creation_date 2023-8-11
_chemical_formula_sum 'C22 H14'
_cell_formula_units_Z 4
_cell_length_a        16.5151261989
_cell_length_b        17.1606465839
_cell_length_c         5.0151817271
_cell_angle_alpha        89.9935
_cell_angle_beta        89.9986
_cell_angle_gamma        89.9997
_cell_volume          1421.353867
_space_group_crystal_system triclinic
_space_group_IT_number 1
_space_group_name_H-M_alt 'P 1'
_space_group_name_Hall 'P 1'
loop_
_symmetry_equiv_pos_site_id
_symmetry_equiv_pos_as_xyz
 1 'x,y,z'
loop_
_atom_site_label
_atom_site_type_symbol
_atom_site_fract_x
_atom_site_fract_y
_atom_site_fract_z
H1    H     0.70245824013824 0.87504268971734 0.98535389910809 
H2    H     0.29754548997692 0.12494962992300 0.48534369008312 
H3    H     0.79754625016214 0.37503460990079 0.48539074900746 
H4    H     0.20245211980988 0.62493906992154 0.98532190927641 
H5    H     0.61490916029575 0.76356110997936 0.89998224040496 
H6    H     0.38511074985746 0.23642396004448 0.39996976980177 
H7    H     0.88510383017959 0.26356113013787 0.40000289982295 
H8    H     0.11489678973257 0.73641546979070 0.89995321067763 
H9    H     0.52135769002374 0.76280051007059 0.50636064064596 
H10   H     0.47867561977967 0.23719686021365 0.00635629974231 
H11   H     0.97865641997834 0.26280770989929 0.00637066076701 
H12   H     0.02134202000228 0.73719076016355 0.50634444955668 
H13   H     0.51019358977398 0.88218181022948 0.22497119096570 
H14   H     0.48983652988963 0.11783091985484 0.72497826013357 
H15   H     0.98981522011765 0.38218648990363 0.72495806045904 
H16   H     0.01018009012745 0.61782459004312 0.22496393002551 
H17   H     0.54636631007093 0.01662747973155 0.13306146908192 
H18   H     0.45364952011799 0.98339411981726 0.63305221013222 
H19   H     0.95364282013906 0.51662960975406 0.63305078077663 
H20   H     0.04636030011844 0.48338591018611 0.13305059956661 
H21   H     0.61471767974296 0.13762049003578 0.27573622003293 
H22   H     0.38527907016074 0.86239970028587 0.77573953093211 
H23   H     0.88528319991218 0.63762018027522 0.77572506014684 
H24   H     0.11472026004313 0.36239414012408 0.27572641045734 
H25   H     0.70128540014611 0.20756359015658 0.58396327061650 
H26   H     0.29871188008030 0.79244939993092 0.08396579050005 
H27   H     0.79871076970854 0.70755805001690 0.08390423093065 
H28   H     0.20128959982217 0.29244198028040 0.58395736956437 
H29   H     0.79758641000833 0.87504242986290 0.56118477061897 
H30   H     0.20242901028154 0.12498599021813 0.06114944966426 
H31   H     0.70242535989982 0.37503745997348 0.06120599069558 
H32   H     0.29758035976822 0.62497202022888 0.56115558087640 
H33   H     0.79870117028975 0.20758782018922 0.96201629025540 
H34   H     0.20129340028224 0.79240861992153 0.46204356017203 
H35   H     0.70129160972950 0.70758511013150 0.46198152932301 
H36   H     0.29870508013276 0.29240281995647 0.96200976033248 
H37   H     0.88526508023076 0.13768618988326 0.27039153963560 
H38   H     0.11472628018687 0.86229541989302 0.77037920936157 
H39   H     0.61473161972631 0.63768436995591 0.77037067991889 
H40   H     0.38526849971735 0.36229515984624 0.27037832974681 
H41   H     0.95361716015552 0.01671708005271 0.41333601903437 
H42   H     0.04636543991149 0.98326226019054 0.91329597904352 
H43   H     0.54637064992089 0.51671708991010 0.91334277083363 
H44   H     0.45361358989024 0.48326425989165 0.41332130031455 
H45   H     0.88515492978885 0.76358698973712 0.64675769942698 
H46   H     0.11486901989523 0.23643848019862 0.14670458974034 
H47   H     0.61483418003771 0.26359089014134 0.14671887007769 
H48   H     0.38514045976340 0.73643433999577 0.64673981067734 
H49   H     0.98980705988886 0.88226365982397 0.32167542021238 
H50   H     0.01019054991051 0.11772970024790 0.82163587992600 
H51   H     0.51017052026808 0.38226599979791 0.82164807098453 
H52   H     0.48979391013719 0.61772574997653 0.32166998084109 
H53   H     0.97868135992578 0.76286595025947 0.04043265996556 
H54   H     0.02132463017497 0.23713167019469 0.54046658937463 
H55   H     0.52128443027502 0.26286444000826 0.54035410011354 
H56   H     0.47866295014438 0.73714019023428 0.04042787992086 
C1    C     0.66336635012939 0.87585576984779 0.81144371049810 
C2    C     0.33664298022757 0.12413864998571 0.31143340003854 
C3    C     0.83664062025582 0.37585289000899 0.31147305995506 
C4    C     0.16335956017018 0.62413092025966 0.81141368088643 
C5    C     0.66310787981691 0.94222033987396 0.64337387970853 
C6    C     0.33690170024886 0.05778464993003 0.14336628966479 
C7    C     0.83690000977410 0.44221784981403 0.14340160019988 
C8    C     0.16310266012591 0.55777707003106 0.64334809012714 
C9    C     0.71438706022334 0.00966438992428 0.68995554926509 
C10   C     0.28561524029622 0.99034304011468 0.18993655944308 
C11   C     0.78561988009221 0.50965988009769 0.18997696928043 
C12   C     0.21438586978756 0.49033533998765 0.68992889036340 
C13   C     0.78562005991962 0.00967851994611 0.85638269085508 
C14   C     0.21437760022251 0.99032428975859 0.35634933023645 
C15   C     0.71438413014360 0.50967352028951 0.35639909035817 
C16   C     0.28561895010665 0.49031793971497 0.85635634067306 
C17   C     0.61330209029449 0.81293608014606 0.76360883996913 
C18   C     0.38671611028553 0.18705645994017 0.26360270967171 
C19   C     0.88670791997037 0.31293711012216 0.26363214096612 
C20   C     0.11329152987695 0.68704887007413 0.76358301080319 
C21   C     0.60348387994666 0.94493209983331 0.43655657043382 
C22   C     0.39653299024857 0.05507829991043 0.93655396935544 
C23   C     0.89652483984551 0.44493269974813 0.93656827916903 
C24   C     0.10347633998752 0.55507105014441 0.43653760015539 
C25   C     0.68913598020979 0.08170610004670 0.57636571036861 
C26   C     0.31086391022721 0.91830604020874 0.07635643017265 
C27   C     0.81086834012014 0.58170140975317 0.07636540059014 
C28   C     0.18913725985743 0.41829858982514 0.57634582004976 
C29   C     0.83690807014403 0.94224780001479 0.90309273071595 
C30   C     0.16309035014869 0.05775430991648 0.40304439943965 
C31   C     0.66309233992331 0.44224324023337 0.40310523057563 
C32   C     0.33690317999055 0.55775080020722 0.90306814011412 
C33   C     0.81086065011694 0.08173321000016 0.96984872015234 
C34   C     0.18913384973939 0.91826396999336 0.46983084971558 
C35   C     0.68913948970645 0.58172895024472 0.46984660925736 
C36   C     0.31086194025081 0.41825838992910 0.96982953041758 
C37   C     0.55961363993004 0.81323648001086 0.54495817014963 
C38   C     0.44041303008883 0.18676248972026 0.04495414096654 
C39   C     0.94039791975757 0.31324097016422 0.04496592959132 
C40   C     0.05960061015157 0.68675575009552 0.54493803949868 
C41   C     0.55405560986352 0.87894147011827 0.38701246070033 
C42   C     0.44596916010656 0.12106731980442 0.88701471969633 
C43   C     0.94595374977720 0.37894508990955 0.88701424074145 
C44   C     0.05404409000551 0.62106065017435 0.38699778034901 
C45   C     0.59056883969939 0.01574763984417 0.29380605062369 
C46   C     0.40944488026824 0.98427222991787 0.79380238929362 
C47   C     0.90943965997926 0.51574704007398 0.79380535973691 
C48   C     0.09056340994974 0.48426376988301 0.29379339917238 
C49   C     0.62893376993358 0.08241819971029 0.37181461955248 
C50   C     0.37107091984370 0.91759962994786 0.87180661047913 
C51   C     0.87107237980493 0.58241598016830 0.87180641053758 
C52   C     0.12893363995208 0.41759201019079 0.37180005909742 
C53   C     0.89652061973366 0.94498456012222 0.10994041051963 
C54   C     0.10347512985007 0.05500629026646 0.60989513007103 
C55   C     0.60347112988963 0.44497867027993 0.60994036073092 
C56   C     0.39651374980518 0.55500804972160 0.10992201064634 
C57   C     0.72262219980838 0.15303326972113 0.67044067916401 
C58   C     0.27737440979332 0.84697481994208 0.17043929082460 
C59   C     0.77737763996713 0.65302870987172 0.17041114098006 
C60   C     0.22262612017448 0.34696838021180 0.67042919061946 
C61   C     0.83666886992766 0.87587486020214 0.73511687078460 
C62   C     0.16333823982660 0.12414265001244 0.23507668067490 
C63   C     0.66333270982064 0.37587011987589 0.23512615028884 
C64   C     0.33666188013738 0.62413487991242 0.73509027065000 
C65   C     0.77736842974382 0.15304735023173 0.87563647032146 
C66   C     0.22262547024642 0.84695319997212 0.37564537997137 
C67   C     0.72262878023032 0.65304435014457 0.37561741072961 
C68   C     0.27737222002598 0.34694741016080 0.87562537971701 
C69   C     0.87105656990453 0.08247261021990 0.17441777008817 
C70   C     0.12893330979637 0.91751533977950 0.67440028971651 
C71   C     0.62893813023965 0.58246757988477 0.67441516910770 
C72   C     0.37105699983495 0.41751326026430 0.17440211065230 
C73   C     0.90942226992060 0.01581325026520 0.25257130926025 
C74   C     0.09056609026046 0.98417080989257 0.75253636069858 
C75   C     0.59056840013360 0.51580803016435 0.75257462919525 
C76   C     0.40941829025999 0.48417087002235 0.25255717060454 
C77   C     0.88674268007429 0.81296856023392 0.78306596951242 
C78   C     0.11327024007640 0.18705099991778 0.28302620081349 
C79   C     0.61324855001999 0.31296835009465 0.28304903972901 
C80   C     0.38673065976595 0.68704354997214 0.78304765016917 
C81   C     0.94595507019151 0.87900498002985 0.15961226903368 
C82   C     0.05404681971380 0.12098628025103 0.65956856099659 
C83   C     0.55402806988787 0.37900183981514 0.65958624953498 
C84   C     0.44594343019542 0.62098895000805 0.15960067065033 
C85   C     0.94041801995106 0.81329195004670 0.00175101961631 
C86   C     0.05959301981678 0.18671585978615 0.50171327989266 
C87   C     0.55956420003140 0.31329525980226 0.50171918083948 
C88   C     0.44040342025991 0.68671270018957 0.00173866957365 
