data_stdin
_audit_creation_method 'critic2'
_audit_creation_date 2023-8-11
_chemical_formula_sum 'C22 H14'
_cell_formula_units_Z 4
_cell_length_a        16.8702108661
_cell_length_b         5.3177405634
_cell_length_c        16.3139846344
_cell_angle_alpha        90.0003
_cell_angle_beta        74.7585
_cell_angle_gamma        90.0017
_cell_volume          1412.071912
_space_group_crystal_system monoclinic
_space_group_IT_number 14
_space_group_name_H-M_alt 'P2_1/c'
_space_group_name_Hall '-P 2ybc'
loop_
_symmetry_equiv_pos_site_id
_symmetry_equiv_pos_as_xyz
 1 'x,y,z'
 2 '-x,-y,-z'
 3 '-1/2-x,-1/2+y,-1/2-z'
 4 '-1/2+x,-1/2-y,-1/2+z'
loop_
_atom_site_label
_atom_site_type_symbol
_atom_site_fract_x
_atom_site_fract_y
_atom_site_fract_z
H1    H     0.13471613003296 0.07398010919760 0.97066659006600 
H2    H     0.01117459007938 0.94855415934108 0.92887912997000 
H3    H     0.00709959988949 0.54671341978966 0.85240047972224 
H4    H     0.13510919998053 0.28961553908966 0.80558031003478 
H5    H     0.28097746998547 0.23837434912478 0.78834738997943 
H6    H     0.41233097984512 0.42008481079713 0.79851563021255 
H7    H     0.48936716023933 0.74838031078072 0.84569835985413 
H8    H     0.14887465975837 0.71821253038552 0.07590856030715 
H9    H     0.49444880010039 0.12697926082349 0.93283370020395 
H10   H     0.42925293010654 0.42136549980375 0.03964267977065 
H11   H     0.30903916010943 0.56148426056603 0.15394758972317 
H12   H     0.04055701002838 0.81961852927377 0.20331232017812 
H13   H     0.17313485009170 0.48045164048059 0.24339607984107 
H14   H     0.04836024985051 0.21224473061510 0.28601150972500 
C1    C     0.13449343992147 0.89652820936931 0.93774937994485 
C2    C     0.20665329017410 0.74756693007339 0.91700781974386 
C3    C     0.28208575002285 0.81988810995203 0.93816113025571 
C4    C     0.28762420995192 0.99724653043477 0.00362600016438 
C5    C     0.06472245024003 0.82621875013841 0.91416251985202 
C6    C     0.20668142013367 0.53147562083485 0.86461160013017 
C7    C     0.35654826002779 0.71644060979060 0.88659065987780 
C8    C     0.22226790984399 0.05024148058572 0.07982950031602 
C9    C     0.36443597032308 0.11896849025027 0.99636316978764 
C10   C     0.06299001000966 0.60083474037560 0.86936665019564 
C11   C     0.13342602998345 0.45757285022626 0.84417145997172 
C12   C     0.28190533007122 0.40463094917964 0.82690238024851 
C13   C     0.35448363998152 0.50433354929902 0.83346418969425 
C14   C     0.23030626998485 0.25935832950769 0.13251749003663 
C15   C     0.43325546999896 0.82644143959909 0.88697595986904 
C16   C     0.15342320993216 0.89076795996423 0.10990672978494 
C17   C     0.43629018986356 0.03345530034888 0.93587420029939 
C18   C     0.37046281992296 0.32455261089364 0.05071882001072 
C19   C     0.30469796022539 0.40088276008318 0.11402663022825 
C20   C     0.09246515973969 0.94716938068772 0.18253406001811 
C21   C     0.16613304990441 0.31684158036005 0.20564060007395 
C22   C     0.09731084033488 0.16593026043225 0.22973111975184 
