data_stdin
_audit_creation_method 'critic2'
_audit_creation_date 2023-8-11
_chemical_formula_sum 'C22 H14'
_cell_formula_units_Z 8
_cell_length_a        20.1488899500
_cell_length_b        16.3984458100
_cell_length_c         8.6322573821
_cell_angle_alpha        90.0011
_cell_angle_beta        89.9992
_cell_angle_gamma        90.0000
_cell_volume          2852.188304
_space_group_crystal_system orthorhombic
_space_group_IT_number 61
_space_group_name_H-M_alt 'Pbca'
_space_group_name_Hall '-P 2ac 2ab'
loop_
_symmetry_equiv_pos_site_id
_symmetry_equiv_pos_as_xyz
 1 'x,y,z'
 2 '-x,-y,-z'
 3 '-x,-1/2+y,-1/2-z'
 4 'x,-1/2-y,-1/2+z'
 5 '-1/2-x,-y,-1/2+z'
 6 '-1/2+x,y,-1/2-z'
 7 '-1/2+x,-1/2-y,-z'
 8 '-1/2-x,-1/2+y,z'
loop_
_atom_site_label
_atom_site_type_symbol
_atom_site_fract_x
_atom_site_fract_y
_atom_site_fract_z
H1    H     0.87943296016764 0.69949860989853 0.44687893007335 
H2    H     0.96687068988561 0.71600077014070 0.25214876026138 
H3    H     0.07936901976783 0.65593332994247 0.29541698944592 
H4    H     0.10495593976397 0.58936257982519 0.54634583016541 
H5    H     0.07484450004534 0.55636217016395 0.81126849952356 
H6    H     0.99653920013932 0.57475517973963 0.03001656020526 
H7    H     0.89222334975723 0.61795631979072 0.13185401954344 
H8    H     0.86018099020610 0.54489703000746 0.46241396992625 
H9    H     0.77907907021204 0.67474202005443 0.09378048028152 
H10   H     0.68876343005591 0.70951212982731 0.92763011040726 
H11   H     0.63059825988866 0.69632013978614 0.67548591021363 
H12   H     0.79280305986512 0.50275309991784 0.23982840044338 
H13   H     0.62469892010076 0.63095192016291 0.42631268996411 
H14   H     0.67540134009161 0.54760250022787 0.21545649953960 
C1    C     0.92790545982830 0.67276236017794 0.46797685959749 
C2    C     0.93998553994004 0.63226494010327 0.61044140996093 
C3    C     0.89053359019582 0.62598167022706 0.73270153048185 
C4    C     0.81984105977730 0.63701450019091 0.71227138994633 
C5    C     0.97717767016425 0.68193587991104 0.35772418989587 
C6    C     0.00640554980987 0.60500433026054 0.63973886055243 
C7    C     0.91432699984738 0.61308514989177 0.88620549056189 
C8    C     0.78302850014097 0.61620183973178 0.57281935971532 
C9    C     0.78199204006769 0.66154541981231 0.84383800994050 
C10   C     0.04089269003001 0.64913694997321 0.38290753964653 
C11   C     0.05504424990665 0.61140927020448 0.52197560986461 
C12   C     0.02458739008206 0.57855658017135 0.79134441002949 
C13   C     0.98119992015589 0.58767574006953 0.91155639046520 
C14   C     0.71423628000766 0.63758629986398 0.56188896029260 
C15   C     0.87238548019959 0.62747577994828 0.01592612042765 
C16   C     0.80927883986872 0.56614659026112 0.45355054030700 
C17   C     0.80977153978199 0.65763417000384 0.99510681037641 
C18   C     0.71438085011229 0.68569444013464 0.82636389977401 
C19   C     0.68224113003422 0.67771406991078 0.68807763050526 
C20   C     0.77139557985321 0.54208377013628 0.32820335987602 
C21   C     0.67689943988961 0.61365825971639 0.43053808023762 
C22   C     0.70475797004110 0.56708050986185 0.31456990013035 
