data_stdin
_audit_creation_method 'critic2'
_audit_creation_date 2023-8-11
_chemical_formula_sum 'C22 H14'
_cell_formula_units_Z 4
_cell_length_a         8.9321208125
_cell_length_b        11.6881964900
_cell_length_c        14.9689759555
_cell_angle_alpha        90.0000
_cell_angle_beta        67.6671
_cell_angle_gamma        90.0000
_cell_volume          1445.546072
_space_group_crystal_system monoclinic
_space_group_IT_number 14
_space_group_name_H-M_alt 'P2_1/c'
_space_group_name_Hall '-P 2ybc'
loop_
_symmetry_equiv_pos_site_id
_symmetry_equiv_pos_as_xyz
 1 'x,y,z'
 2 '-x,-y,-z'
 3 '-x,-1/2+y,-1/2-z'
 4 'x,-1/2-y,-1/2+z'
loop_
_atom_site_label
_atom_site_type_symbol
_atom_site_fract_x
_atom_site_fract_y
_atom_site_fract_z
H1    H     0.77692749948145 0.27331470976944 0.17703400995669 
H2    H     0.00471399031865 0.18724748978809 0.20461585031246 
H3    H     0.22816970055313 0.09092071019101 0.06914292995660 
H4    H     0.20566896980235 0.07154733978417 0.90964893016897 
H5    H     0.04793728044293 0.08795844993132 0.80943557996763 
H6    H     0.78464736960039 0.12869951985935 0.79755302988732 
H7    H     0.51723328002206 0.20925939961633 0.86136000005782 
H8    H     0.91113863009312 0.43758847012456 0.05462700981659 
H9    H     0.30282762020954 0.31996247036022 0.98687516035690 
H10   H     0.21085898044226 0.43303555969705 0.12993676970226 
H11   H     0.26497135986353 0.54712676025145 0.25483114988906 
H12   H     0.96833651985560 0.59187475978835 0.14791195999744 
H13   H     0.45835590066272 0.63759432018336 0.30946956967831 
H14   H     0.74124743029393 0.68890041038867 0.28108589006467 
C1    C     0.87266983977505 0.23271402958543 0.11708433034740 
C2    C     0.86022210977396 0.22893098035909 0.02565090029140 
C3    C     0.72323254941411 0.27633830006424 0.00802407019411 
C4    C     0.61168621982759 0.36032585016336 0.06819366979920 
C5    C     0.00149778018167 0.18352403978632 0.13268397013505 
C6    C     0.98036700995288 0.16436884019850 0.95146476024842 
C7    C     0.69126615031321 0.22905981958961 0.92920868000383 
C8    C     0.65030086996480 0.44531001963771 0.12740919022809 
C9    C     0.45499530992223 0.36728569041152 0.06412110008604 
C10   C     0.12617226953522 0.12839677958281 0.05684556030808 
C11   C     0.11444800999811 0.11867878978564 0.96785103015074 
C12   C     0.95549033967188 0.13675693996725 0.86535024996275 
C13   C     0.81126550971345 0.16141177033290 0.85804364019785 
C14   C     0.52201889967629 0.50887171999717 0.19736756971174 
C15   C     0.53963979012732 0.24784076005421 0.92140878008420 
C16   C     0.81103168035814 0.47900600961999 0.11148253019743 
C17   C     0.42170523973533 0.30989131968695 0.99011012987774 
C18   C     0.33064859995947 0.43405606032638 0.13338307993178 
C19   C     0.36036230034468 0.49709484966117 0.20157285032930 
C20   C     0.84350700037480 0.56555315025729 0.16464356015772 
C21   C     0.55815532018438 0.59241979034280 0.25484030020560 
C22   C     0.71619613959033 0.62112680962531 0.23884310015841 
