data_stdin
_audit_creation_method 'critic2'
_audit_creation_date 2023-8-11
_chemical_formula_sum 'C22 H14'
_cell_formula_units_Z 4
_cell_length_a         5.8875581640
_cell_length_b        17.3156675348
_cell_length_c        15.0717838244
_cell_angle_alpha        90.0008
_cell_angle_beta        67.1609
_cell_angle_gamma        90.0065
_cell_volume          1416.057036
_space_group_crystal_system monoclinic
_space_group_IT_number 14
_space_group_name_H-M_alt 'P2_1/c'
_space_group_name_Hall '-P 2ybc'
loop_
_symmetry_equiv_pos_site_id
_symmetry_equiv_pos_as_xyz
 1 'x,y,z'
 2 '-x,-y,-z'
 3 '-x,-1/2+y,-1/2-z'
 4 'x,-1/2-y,-1/2+z'
loop_
_atom_site_label
_atom_site_type_symbol
_atom_site_fract_x
_atom_site_fract_y
_atom_site_fract_z
H1    H     0.47577586982118 0.37907053983077 0.01917531014704 
H2    H     0.46657682041765 0.49297476020148 0.92340710031459 
H3    H     0.15746013945411 0.50308281989287 0.84933625009909 
H4    H     0.88500183067949 0.39089325008472 0.85754098975215 
H5    H     0.76653409922459 0.25680008011762 0.90168252023294 
H6    H     0.85095851062536 0.13221851009958 0.96296516970316 
H7    H     0.06638403058874 0.05691544007784 0.04092960969883 
H8    H     0.02631484028075 0.38330005024378 0.16336946968724 
H9    H     0.33861362067207 0.04913620984042 0.13192456002113 
H10   H     0.57093143041396 0.11150566025866 0.21378939973917 
H11   H     0.68905574005061 0.22811825019827 0.27952089007827 
H12   H     0.06344976013282 0.49062042003475 0.26389523964473 
H13   H     0.60063291999455 0.36210320026834 0.33154830998279 
H14   H     0.36074058982315 0.48247932973310 0.34458212980627 
C1    C     0.34000724958883 0.38223630001694 0.98689302981101 
C2    C     0.17586870052188 0.31956885024162 0.99895737029329 
C3    C     0.17856000944481 0.25073394985646 0.05375492012928 
C4    C     0.28238188050578 0.24666186971922 0.12599219029810 
C5    C     0.33507121967167 0.44638382989238 0.93307103012648 
C6    C     0.01960728948067 0.32184602006016 0.94622090983813 
C7    C     0.08288174938031 0.18170566000389 0.03017505977257 
C8    C     0.30332844076950 0.31163329992330 0.18347856984006 
C9    C     0.35728297952912 0.17316071980558 0.14732367975425 
C10   C     0.16281092025673 0.45143660005919 0.88956112027098 
C11   C     0.00995914032827 0.38962299009441 0.89517946031965 
C12   C     0.89011274078985 0.25386973005156 0.93968629984088 
C13   C     0.93349373989722 0.18542781975293 0.97501093006618 
C14   C     0.45660646020155 0.30477330023104 0.23714173971791 
C15   C     0.13694983935155 0.10915426973010 0.06160722014863 
C16   C     0.15864214080662 0.37932566989555 0.19717069972843 
C17   C     0.28388991022099 0.10488447980021 0.11309686026542 
C18   C     0.50538583946463 0.16804885999482 0.20290997013082 
C19   C     0.56683854020093 0.23223615980193 0.24104231020377 
C20   C     0.17853496069156 0.43950793022804 0.25407333993894 
C21   C     0.48071126977824 0.36818212983235 0.29217863001902 
C22   C     0.34570960064268 0.43483280998053 0.30003697983772 
