data_stdin
_audit_creation_method 'critic2'
_audit_creation_date 2023-8-11
_chemical_formula_sum 'C22 H14'
_cell_formula_units_Z 8
_cell_length_a        13.9345955975
_cell_length_b        21.1973758292
_cell_length_c         9.6428575287
_cell_angle_alpha        90.0007
_cell_angle_beta        89.9985
_cell_angle_gamma        89.9979
_cell_volume          2848.276974
_space_group_crystal_system orthorhombic
_space_group_IT_number 61
_space_group_name_H-M_alt 'Pbca'
_space_group_name_Hall '-P 2ac 2ab'
loop_
_symmetry_equiv_pos_site_id
_symmetry_equiv_pos_as_xyz
 1 'x,y,z'
 2 '-x,-y,-z'
 3 '-x,-1/2+y,-1/2-z'
 4 'x,-1/2-y,-1/2+z'
 5 '-1/2-x,-y,-1/2+z'
 6 '-1/2+x,y,-1/2-z'
 7 '-1/2+x,-1/2-y,-z'
 8 '-1/2-x,-1/2+y,z'
loop_
_atom_site_label
_atom_site_type_symbol
_atom_site_fract_x
_atom_site_fract_y
_atom_site_fract_z
H1    H     0.61692389050326 0.42556759408106 0.43203182666997 
H2    H     0.44848631953817 0.45682989477195 0.46978842900294 
H3    H     0.35525056434257 0.41276021455796 0.66742295436879 
H4    H     0.42741893151125 0.32829736209703 0.81198774926980 
H5    H     0.55529528684444 0.25198929256463 0.85530419162730 
H6    H     0.70209016084839 0.19903135873278 0.76744892011293 
H7    H     0.83116065790712 0.19192427200079 0.59696466255215 
H8    H     0.70272822118494 0.45896934681466 0.67025911819174 
H9    H     0.93174609231719 0.24227275588876 0.41654505385556 
H10   H     0.98837891911563 0.33474117097790 0.30034531052256 
H11   H     0.99149350212550 0.45110293611391 0.27381624447891 
H12   H     0.72695193483113 0.57263978248795 0.66845615727041 
H13   H     0.94049278678700 0.55353685115220 0.34894283560742 
H14   H     0.84188605216554 0.62248162926119 0.50014654806504 
C1    C     0.57652685458244 0.40495572357246 0.51738218414852 
C2    C     0.62108201325230 0.35878803354515 0.60196196368095 
C3    C     0.71779150049947 0.33600095374560 0.57691780163409 
C4    C     0.79151651327001 0.37018293717627 0.50284103193748 
C5    C     0.48218553400108 0.42294301410642 0.53897801267794 
C6    C     0.56336337085645 0.32865960746541 0.70537142613828 
C7    C     0.73877914023007 0.27363316941131 0.62294310134984 
C8    C     0.80169223810609 0.43857397990072 0.50226972927702 
C9    C     0.86549401446213 0.33417939499634 0.43817183468202 
C10   C     0.42874590255102 0.39738304054687 0.64940619058967 
C11   C     0.46915601072933 0.35083819257636 0.73083795951029 
C12   C     0.59805331767062 0.27310818235463 0.77281750311912 
C13   C     0.67948840230504 0.24439737285713 0.72556048507848 
C14   C     0.87361292422395 0.46696851218927 0.41629524284579 
C15   C     0.81802570506159 0.24049333749201 0.56517424668373 
C16   C     0.75187378506367 0.47897569773071 0.59480750776168 
C17   C     0.87470996592151 0.26861769884669 0.46709165609445 
C18   C     0.93511988761725 0.36421343471638 0.35172690858345 
C19   C     0.93728440546470 0.42824871448335 0.33777327365719 
C20   C     0.76628558829049 0.54359008070534 0.59458750222552 
C21   C     0.88546922615937 0.53329986423757 0.41564391026917 
C22   C     0.83161157416081 0.57153947161832 0.50150860112495 
