data_stdin
_audit_creation_method 'critic2'
_audit_creation_date 2023-8-11
_chemical_formula_sum 'C22 H14'
_cell_formula_units_Z 4
_cell_length_a        20.9121220364
_cell_length_b         8.8719731605
_cell_length_c         7.7612264633
_cell_angle_alpha        90.0001
_cell_angle_beta        83.1851
_cell_angle_gamma        89.9994
_cell_volume          1429.780555
_space_group_crystal_system monoclinic
_space_group_IT_number 14
_space_group_name_H-M_alt 'P2_1/c'
_space_group_name_Hall '-P 2ybc'
loop_
_symmetry_equiv_pos_site_id
_symmetry_equiv_pos_as_xyz
 1 'x,y,z'
 2 '-x,-y,-z'
 3 '-x,-1/2+y,-1/2-z'
 4 'x,-1/2-y,-1/2+z'
loop_
_atom_site_label
_atom_site_type_symbol
_atom_site_fract_x
_atom_site_fract_y
_atom_site_fract_z
H1    H     0.23956826022833 0.38178700953916 0.80202483942888 
H2    H     0.16077485011623 0.17879650974327 0.86548140980636 
H3    H     0.05112323988658 0.19990400033488 0.77127108979466 
H4    H     0.01872424024989 0.43841820995439 0.63938757973124 
H5    H     0.04193915993176 0.69553850032587 0.54152842043717 
H6    H     0.11263341975366 0.91915498006728 0.53875979018631 
H7    H     0.20813697021893 0.03764550998731 0.60465769968501 
H8    H     0.26417050000883 0.38288707974935 0.48331349022483 
H9    H     0.31843171989744 0.02515717019955 0.69369915017036 
H10   H     0.40825873018401 0.88692494980268 0.76118856957409 
H11   H     0.47222715986218 0.64947910052725 0.74826308059451 
H12   H     0.33646335021219 0.16882768977874 0.41210541055755 
H13   H     0.48663341020585 0.39501302049948 0.64310473036698 
H14   H     0.44712472006326 0.16799527055760 0.50021502063120 
C1    C     0.19222487012055 0.39325391987668 0.75956236959287 
C2    C     0.17723749997451 0.52715882976606 0.67288386939163 
C3    C     0.22206281013996 0.65237738032640 0.64078209995629 
C4    C     0.29078819998690 0.64533785041769 0.65053729997636 
C5    C     0.14787564985468 0.27863286035576 0.79572747014352 
C6    C     0.11207551012797 0.54397842001902 0.63531414033223 
C7    C     0.19473225994290 0.79591588023058 0.61132531994658 
C8    C     0.33132039000498 0.51297252997748 0.61457752949727 
C9    C     0.32292604023498 0.78198791996930 0.68385915943705 
C10   C     0.08548308003121 0.29167811050332 0.74614652992635 
C11   C     0.06791765001182 0.42344330985395 0.66970996966134 
C12   C     0.09083471003796 0.68525722984326 0.57520080027188 
C13   C     0.12993493983860 0.80832833944707 0.57221330994421 
C14   C     0.39689072016821 0.51625092054216 0.65169691946677 
C15   C     0.23096573023205 0.92989760949341 0.62493604965328 
C16   C     0.31187014991404 0.38463649944711 0.52504395974063 
C17   C     0.29178698000757 0.92307110044646 0.67177484043747 
C18   C     0.38778221015376 0.78043743957812 0.72406548045280 
C19   C     0.42285281010409 0.65062886016214 0.71661403982631 
C20   C     0.35258727024718 0.26388113047415 0.48422951951866 
C21   C     0.43714990002723 0.38935065024930 0.61282736999727 
C22   C     0.41549671980257 0.26409856012785 0.53183844040737 
