data_stdin
_audit_creation_method 'critic2'
_audit_creation_date 2023-8-11
_chemical_formula_sum 'C22 H14'
_cell_formula_units_Z 8
_cell_length_a        15.5284143379
_cell_length_b        11.4599708109
_cell_length_c        16.3307459996
_cell_angle_alpha        89.9991
_cell_angle_beta        85.1439
_cell_angle_gamma        89.9999
_cell_volume          2895.709200
_space_group_crystal_system monoclinic
_space_group_IT_number 15
_space_group_name_H-M_alt 'C2/c'
_space_group_name_Hall '-C 2yc'
loop_
_symmetry_equiv_pos_site_id
_symmetry_equiv_pos_as_xyz
 1 'x,y,z'
 2 '-1/2-x,-1/2-y,-1/2-z'
 3 '-1/2-x,y,-z'
 4 '-1/2+x,-y,z'
 5 '-1/2+x,-1/2+y,-1/2+z'
 6 '-x,-y,-z'
 7 '-x,-1/2+y,-1/2-z'
 8 'x,-1/2-y,-1/2+z'
loop_
_atom_site_label
_atom_site_type_symbol
_atom_site_fract_x
_atom_site_fract_y
_atom_site_fract_z
H1    H     0.55141846969335 0.14663442036161 0.31110498013889 
H2    H     0.50455007967032 0.32370809968238 0.24363266019333 
H3    H     0.51638893979415 0.51834414995925 0.31030852016487 
H4    H     0.57042410013563 0.53025517011612 0.44899837021672 
H5    H     0.61860089969518 0.43725758031237 0.57073793008544 
H6    H     0.63379852967845 0.25685145033300 0.65097293020621 
H7    H     0.62462921995550 0.04820225008885 0.66395979015035 
H8    H     0.71723954019121 0.16489855970254 0.31494851005625 
H9    H     0.60556057983007 0.85248457010626 0.60191893991277 
H10   H     0.59612005966784 0.73075412970670 0.48408016016151 
H11   H     0.61973198009755 0.69889372029542 0.33314841978678 
H12   H     0.77113313976298 0.12191895013921 0.17222503030770 
H13   H     0.67700083023832 0.77039166996541 0.19905265992136 
H14   H     0.74575403980347 0.92669559987418 0.11125907986988 
C1    C     0.55875971979948 0.23051717017951 0.34064110995834 
C2    C     0.59352701985058 0.23422635998700 0.41822240992583 
C3    C     0.61813335986842 0.13020421009993 0.46161255999220 
C4    C     0.63068364978554 0.01613917960210 0.42493474970582 
C5    C     0.53185799982064 0.33026935001801 0.30262804025732 
C6    C     0.59462575006895 0.34539003023612 0.45832620998749 
C7    C     0.62258138029382 0.13998953035434 0.54809509981786 
C8    C     0.66090971017012 0.99452525977011 0.33973497986597 
C9    C     0.61806011986035 0.91691877008515 0.47701589027548 
C10   C     0.53793882011981 0.44010648037200 0.34048633994546 
C11   C     0.56852917020663 0.44681132022935 0.41725760975875 
C12   C     0.61577420995579 0.35208820969655 0.54151596985070 
C13   C     0.62506160980189 0.25233497968281 0.58556588030426 
C14   C     0.65490313995370 0.87940229973212 0.30677985025763 
C15   C     0.62171248987298 0.03815863008547 0.59798327016250 
C16   C     0.70522160985223 0.07967016028092 0.28914982969997 
C17   C     0.61312184010863 0.93036738997544 0.56379393969371 
C18   C     0.61234192000884 0.80314028979681 0.44229020973454 
C19   C     0.62552703026597 0.78558446992176 0.35949246997274 
C20   C     0.73564395988604 0.05574418041411 0.20899114029754 
C21   C     0.68339176985376 0.85819470016482 0.22335266991878 
C22   C     0.72243476975327 0.94488804976229 0.17474339003794 
