data_stdin
_audit_creation_method 'critic2'
_audit_creation_date 2023-8-11
_chemical_formula_sum 'C22 H14'
_cell_formula_units_Z 4
_cell_length_a        10.0884718792
_cell_length_b        22.9888381103
_cell_length_c         6.1373665774
_cell_angle_alpha        89.9997
_cell_angle_beta        77.9291
_cell_angle_gamma        89.9999
_cell_volume          1391.920271
_space_group_crystal_system monoclinic
_space_group_IT_number 14
_space_group_name_H-M_alt 'P2_1/c'
_space_group_name_Hall '-P 2ybc'
loop_
_symmetry_equiv_pos_site_id
_symmetry_equiv_pos_as_xyz
 1 'x,y,z'
 2 '-x,-y,-z'
 3 '-x,-1/2+y,-1/2-z'
 4 'x,-1/2-y,-1/2+z'
loop_
_atom_site_label
_atom_site_type_symbol
_atom_site_fract_x
_atom_site_fract_y
_atom_site_fract_z
H1    H     0.58871954960497 0.87572057013155 0.19711411933309 
H2    H     0.34996146965155 0.85202370999854 0.34654935951745 
H3    H     0.27769687019672 0.81016189994826 0.72819011997226 
H4    H     0.45192050994496 0.78817432981371 0.95020023990924 
H5    H     0.68598032032964 0.78113226005647 0.98261549060378 
H6    H     0.92764472022888 0.78188518013121 0.79654989986561 
H7    H     0.10380797995424 0.79943916017078 0.47663599930571 
H8    H     0.65365989017699 0.96194152015762 0.44930677050772 
H9    H     0.18394818019242 0.84150758016433 0.09729859044970 
H10   H     0.14421364007761 0.89922024998325 0.78973306007157 
H11   H     0.99747078008135 0.96293021998686 0.61790257956938 
H12   H     0.53903916966683 0.04436127006806 0.31050581979941 
H13   H     0.79790452036484 0.02622988989763 0.66316477998603 
H14   H     0.59967375008215 0.07245155019959 0.91077769021137 
C1    C     0.55922957970714 0.85855314007128 0.36510043928379 
C2    C     0.66039482058359 0.84920344999882 0.49083606918412 
C3    C     0.80400469000184 0.85981325999725 0.40300667987329 
C4    C     0.85832470028074 0.89509267987925 0.21028054979921 
C5    C     0.42469331965262 0.84481902987411 0.44865858080509 
C6    C     0.61897355941516 0.82144617987134 0.70338501074643 
C7    C     0.89722124975096 0.82909243002383 0.50553940043074 
C8    C     0.78812743015314 0.94357929001818 0.13351747045652 
C9    C     0.99315864997208 0.88396996006782 0.09189498981263 
C10   C     0.38380673958752 0.82097588980465 0.66371741975690 
C11   C     0.47999023042883 0.80937342989859 0.78826240012575 
C12   C     0.71861794032160 0.80101592997709 0.81931004922370 
C13   C     0.85230509006713 0.80196158012807 0.71712026930164 
C14   C     0.83590912960437 0.96583304984861 0.91335393032900 
C15   C     0.03571186028790 0.82429980999481 0.39558447935713 
C16   C     0.68222291970229 0.97431555008826 0.27495864005766 
C17   C     0.08002183977923 0.84779862009503 0.18827154042634 
C18   C     0.04182835024488 0.90959733017326 0.87843672949419 
C19   C     0.96215232960792 0.94595876017504 0.78554649001262 
C20   C     0.61776126012841 0.02054435979729 0.19737390041084 
C21   C     0.76320337975838 0.01105789009587 0.83375820993575 
C22   C     0.65463573001517 0.03752966978663 0.97223742054056 
