data_stdin
_audit_creation_method 'critic2'
_audit_creation_date 2023-8-11
_chemical_formula_sum 'C22 H14'
_cell_formula_units_Z 8
_cell_length_a        15.2841614600
_cell_length_b        10.8501637502
_cell_length_c        16.9996446700
_cell_angle_alpha        89.9996
_cell_angle_beta        90.0000
_cell_angle_gamma        90.0000
_cell_volume          2819.147202
_space_group_crystal_system orthorhombic
_space_group_IT_number 61
_space_group_name_H-M_alt 'Pbca'
_space_group_name_Hall '-P 2ac 2ab'
loop_
_symmetry_equiv_pos_site_id
_symmetry_equiv_pos_as_xyz
 1 'x,y,z'
 2 '-x,-y,-z'
 3 '-1/2+x,-1/2-y,-z'
 4 '-1/2-x,-1/2+y,z'
 5 '-x,-1/2+y,-1/2-z'
 6 'x,-1/2-y,-1/2+z'
 7 '-1/2-x,-y,-1/2+z'
 8 '-1/2+x,y,-1/2-z'
loop_
_atom_site_label
_atom_site_type_symbol
_atom_site_fract_x
_atom_site_fract_y
_atom_site_fract_z
H1    H     0.39815712739409 0.77602647761841 0.38216962937399 
H2    H     0.49606958425115 0.80511481754662 0.49406990877712 
H3    H     0.62310603112402 0.94950549064599 0.48474838597378 
H4    H     0.65360709937119 0.05571203311762 0.35798430612899 
H5    H     0.61972868664331 0.09393334104125 0.22093786742911 
H6    H     0.53473973031612 0.03922985893055 0.10192511104717 
H7    H     0.42211543732356 0.91926286660228 0.03805022141832 
H8    H     0.32533956381374 0.99519438101040 0.37245128968215 
H9    H     0.29291109131321 0.77998933543846 0.04528568210490 
H10   H     0.17961044534119 0.67989261589093 0.12104144092660 
H11   H     0.10080742000996 0.64697465929977 0.24594362465183 
H12   H     0.23131052600971 0.98719492206216 0.48940456671108 
H13   H     0.07737890649445 0.70015630041444 0.38280509855835 
H14   H     0.11158931282232 0.83142321841201 0.49890258321169 
C1    C     0.45209805580215 0.84057504223983 0.37699016624005 
C2    C     0.46311283962379 0.90758765782181 0.30612012865773 
C3    C     0.40448636343752 0.89551758987488 0.23928514403740 
C4    C     0.31754968999576 0.84355431517619 0.24258980758847 
C5    C     0.50827479450575 0.85564706025649 0.43983990204623 
C6    C     0.53993861013565 0.98240851529200 0.29909290859646 
C7    C     0.43741719336759 0.93219852242899 0.16446262213706 
C8    C     0.26169671502468 0.84427357575939 0.31180265100381 
C9    C     0.28158495511501 0.79342040402729 0.17219857457604 
C10   C     0.57996323165438 0.93687425614839 0.43450979661807 
C11   C     0.59611674665957 0.99745834859448 0.36469534849201 
C12   C     0.56181743656429 0.03582058937885 0.22498620757908 
C13   C     0.51432301657370 0.00647956432783 0.15960416237029 
C14   C     0.18583784069945 0.76701521820607 0.31357273700758 
C15   C     0.39433190542361 0.89278274377818 0.09465324438549 
C16   C     0.27377186242858 0.92658634069036 0.37562239669983 
C17   C     0.32227321376876 0.81796189219450 0.09847427801352 
C18   C     0.20368262719922 0.72086249429907 0.17532772558592 
C19   C     0.15972701328314 0.70302168019066 0.24425624596586 
C20   C     0.22070003790308 0.92242708507739 0.44139108539763 
C21   C     0.13408215952551 0.76120746566283 0.38260539520527 
C22   C     0.15219904455028 0.83578933845595 0.44635075835083 
