data_stdin
_audit_creation_method 'critic2'
_audit_creation_date 2023-8-11
_chemical_formula_sum 'C22 H14'
_cell_formula_units_Z 4
_cell_length_a         9.3477616300
_cell_length_b        14.7012818800
_cell_length_c        11.0007500600
_cell_angle_alpha        90.0000
_cell_angle_beta        90.0000
_cell_angle_gamma        89.9999
_cell_volume          1511.767942
_space_group_crystal_system orthorhombic
_space_group_IT_number 19
_space_group_name_H-M_alt 'P2_12_12_1'
_space_group_name_Hall 'P 2ac 2ab'
loop_
_symmetry_equiv_pos_site_id
_symmetry_equiv_pos_as_xyz
 1 'x,y,z'
 2 '-x,-1/2+y,-1/2-z'
 3 '-1/2+x,-1/2-y,-z'
 4 '-1/2-x,-y,-1/2+z'
loop_
_atom_site_label
_atom_site_type_symbol
_atom_site_fract_x
_atom_site_fract_y
_atom_site_fract_z
H1    H     0.22219440024166 0.96194096973522 0.25408437985212 
H2    H     0.45647625956448 0.02942707015423 0.21403923979093 
H3    H     0.56063908042644 0.14389587984818 0.35762078017779 
H4    H     0.41502829962698 0.19921826978777 0.53124805972656 
H5    H     0.18698190992919 0.20934297023694 0.63468570975878 
H6    H     0.92780475994068 0.17220000986979 0.63759246012072 
H7    H     0.72607766964863 0.08776313025844 0.56435859998272 
H8    H     0.26048069993996 0.87895962981192 0.46566293999652 
H9    H     0.62487857953346 0.96323447967630 0.43796627015432 
H10   H     0.65451100958834 0.82925408004129 0.32042791036678 
H11   H     0.80622621970569 0.70611635031508 0.23531528959990 
H12   H     0.39538930988784 0.74026980009287 0.42288574008439 
H13   H     0.03389744048265 0.62842940013175 0.23233482980481 
H14   H     0.28498461013351 0.61443838016073 0.30125917001640 
C1    C     0.26441119012655 0.01213899967183 0.31709490964551 
C2    C     0.18136021988725 0.03891751972969 0.41880194030851 
C3    C     0.03906531045840 0.00315619974340 0.44292000990575 
C4    C     0.98339836998834 0.91851270018067 0.39580226992127 
C5    C     0.39706136997180 0.05032049975584 0.29441454012820 
C6    C     0.23512455974598 0.11179414026419 0.49216576023246 
C7    C     0.94544543946708 0.05939298968074 0.51236553962794 
C8    C     0.06936173999871 0.83860935975998 0.36758744036490 
C9    C     0.83195300991699 0.90923069032072 0.38692836958718 
C10   C     0.45475976994234 0.11579936017766 0.37417768991415 
C11   C     0.37462483014940 0.14594149971767 0.47154822997188 
C12   C     0.14354524012556 0.15522751988336 0.57805968019260 
C13   C     0.00168368983892 0.13351575009820 0.58141874998991 
C14   C     0.00391284996162 0.76322010008047 0.30622541028442 
C15   C     0.79550780991226 0.04280183973565 0.51216099960645 
C16   C     0.21140215975976 0.82649685029712 0.41008634010525 
C17   C     0.74003316963116 0.97339977986240 0.44401370000074 
C18   C     0.77068152995793 0.83255767973953 0.32670530955309 
C19   C     0.85388954049790 0.76410752991781 0.28176642038782 
C20   C     0.28774326990539 0.74788596969749 0.38633245000244 
C21   C     0.08556965004097 0.68442141992915 0.27999092980080 
C22   C     0.22561205009938 0.67675811020660 0.31859016956863 
