data_stdin
_audit_creation_method 'critic2'
_audit_creation_date 2023-8-11
_chemical_formula_sum 'C22 H14'
_cell_formula_units_Z 8
_cell_length_a        31.4877432202
_cell_length_b         4.8060120325
_cell_length_c        19.7132812449
_cell_angle_alpha        89.9985
_cell_angle_beta        75.8982
_cell_angle_gamma        90.0056
_cell_volume          2893.318820
_space_group_crystal_system monoclinic
_space_group_IT_number 15
_space_group_name_H-M_alt 'C2/c'
_space_group_name_Hall '-C 2yc'
loop_
_symmetry_equiv_pos_site_id
_symmetry_equiv_pos_as_xyz
 1 'x,y,z'
 2 '-x,-y,-z'
 3 '-x,y,-1/2-z'
 4 'x,-y,-1/2+z'
 5 '-1/2+x,-1/2+y,z'
 6 '-1/2-x,-1/2-y,-z'
 7 '-1/2-x,-1/2+y,-1/2-z'
 8 '-1/2+x,-1/2-y,-1/2+z'
loop_
_atom_site_label
_atom_site_type_symbol
_atom_site_fract_x
_atom_site_fract_y
_atom_site_fract_z
H1    H     0.32944989995126 0.89324370062248 0.12634964997943 
H2    H     0.28063811985569 0.83594924980670 0.04789531025262 
H3    H     0.29479168004050 0.45879024051273 0.95656137017697 
H4    H     0.36146443013772 0.17125745897370 0.94068780993043 
H5    H     0.42986198991074 0.05512167013610 0.97062109982343 
H6    H     0.48764496018212 0.19211294097069 0.03052267980222 
H7    H     0.51484461987777 0.50923341102731 0.10451661976952 
H8    H     0.32260653002439 0.42588312922752 0.19961708973976 
H9    H     0.50244259991565 0.89687457045503 0.18999677013912 
H10   H     0.45223424985128 0.20125318096860 0.27168796001248 
H11   H     0.37774857007181 0.29057295938372 0.34540746986009 
H12   H     0.25339890988304 0.44994117017944 0.28817981995817 
H13   H     0.30259424984790 0.13339525898954 0.38799595004492 
H14   H     0.24149552997314 0.81563967952279 0.38158074999523 
C1    C     0.33588565997089 0.72802971975676 0.08759672008953 
C2    C     0.37315436008661 0.55625764001065 0.08231549002678 
C3    C     0.40392219008964 0.59530562026505 0.12568015006087 
C4    C     0.39531568998226 0.75456865909357 0.18972618022191 
C5    C     0.30846329991708 0.69632159949009 0.04303616980968 
C6    C     0.38308316005834 0.35985983957246 0.02598306975244 
C7    C     0.44684965009147 0.48676111980490 0.09998576994163 
C8    C     0.35297631989961 0.77423742048571 0.23936257981071 
C9    C     0.43157721004503 0.88229210054439 0.20854564008822 
C10   C     0.31674272993319 0.48868631091329 0.99094961015793 
C11   C     0.35377982010052 0.32558590989501 0.98235152986434 
C12   C     0.42366154989510 0.21269888907432 0.01162580007031 
C13   C     0.45514243014452 0.28470869005069 0.04526772975122 
C14   C     0.34723173997591 0.96670429070513 0.29633623016744 
C15   C     0.48199726996999 0.58888042917546 0.12658710019966 
C16   C     0.31811527012033 0.58777253911908 0.23914147000975 
C17   C     0.47498916009609 0.80007587020257 0.17459130998317 
C18   C     0.42425330003903 0.08414108957565 0.26348147993650 
C19   C     0.38326073003528 0.13312774027467 0.30437971018442 
C20   C     0.27905924993072 0.59995202964682 0.28959564997706 
C21   C     0.30642973989807 0.98077726902223 0.34611841974785 
C22   C     0.27266609001798 0.80191569923896 0.34288400984533 
