data_stdin
_audit_creation_method 'critic2'
_audit_creation_date 2023-8-11
_chemical_formula_sum 'C22 H14'
_cell_formula_units_Z 4
_cell_length_a        10.4835772496
_cell_length_b         8.1743462612
_cell_length_c        17.9548117894
_cell_angle_alpha        90.0010
_cell_angle_beta        68.4061
_cell_angle_gamma        90.0005
_cell_volume          1430.672655
_space_group_crystal_system monoclinic
_space_group_IT_number 14
_space_group_name_H-M_alt 'P2_1/c'
_space_group_name_Hall '-P 2ybc'
loop_
_symmetry_equiv_pos_site_id
_symmetry_equiv_pos_as_xyz
 1 'x,y,z'
 2 '-x,-y,-z'
 3 '-x,-1/2+y,-1/2-z'
 4 'x,-1/2-y,-1/2+z'
loop_
_atom_site_label
_atom_site_type_symbol
_atom_site_fract_x
_atom_site_fract_y
_atom_site_fract_z
H1    H     0.97264800033992 0.32429508979725 0.82527277995806 
H2    H     0.22177314059823 0.35050706996196 0.76113786971016 
H3    H     0.32629095979887 0.48821375020147 0.62722987005062 
H4    H     0.17657553005068 0.57417417003870 0.55531752972303 
H5    H     0.95163041969422 0.59127495971437 0.54577900017312 
H6    H     0.70744187018901 0.50781640962537 0.59701839010695 
H7    H     0.51164779968809 0.38504772030447 0.69842257980549 
H8    H     0.88994538994801 0.62843296031688 0.85068080002388 
H9    H     0.40140375982831 0.26031695953794 0.83308005014194 
H10   H     0.39904466989782 0.20320983055001 0.96511967992284 
H11   H     0.49845278952495 0.23400277995746 0.06932124010188 
H12   H     0.95698490050970 0.70422917941649 0.96219548988381 
H13   H     0.66388565975608 0.36513210944651 0.11615868992379 
H14   H     0.85188653004941 0.56484310967516 0.09522959996512 
C1    C     0.01564571033126 0.38410250054980 0.76746964009573 
C2    C     0.92616917016126 0.44133353960203 0.73025680005235 
C3    C     0.77754195038110 0.42675002025665 0.76642120014604 
C4    C     0.70053417024334 0.39503604990608 0.85027593011882 
C5    C     0.15654252016244 0.39885709973564 0.73106644973690 
C6    C     0.98798017029463 0.50326107939638 0.65033906004806 
C7    C     0.70373077965503 0.43425116016519 0.71383278997371 
C8    C     0.74336084030863 0.44267297038908 0.91549747005232 
C9    C     0.56874879972171 0.32115143007397 0.87152719985294 
C10   C     0.21573524033840 0.47244108001145 0.65512541004973 
C11   C     0.13226177987981 0.52167571026047 0.61516631983186 
C12   C     0.90422424055978 0.53827980995584 0.60520300983127 
C13   C     0.76883458970242 0.49550035028810 0.63426105997441 
C14   C     0.67307930001721 0.37670854011629 0.99390324005390 
C15   C     0.56560162030775 0.37872101008454 0.73992078972365 
C16   C     0.84283650969856 0.56548963965889 0.90748380973316 
C17   C     0.50386486003199 0.31256295006871 0.81460387021340 
C18   C     0.49881714981402 0.26113793964267 0.95092968028880 
C19   C     0.55284092038750 0.28009688963705 0.00895125007324 
C20   C     0.87958737015765 0.60983620998297 0.97109467019942 
C21   C     0.71663257039257 0.41903192946561 0.05729689973279 
C22   C     0.81939920033624 0.53265101058659 0.04610738994554 
