data_stdin
_audit_creation_method 'critic2'
_audit_creation_date 2023-8-11
_chemical_formula_sum 'C22 H14'
_cell_formula_units_Z 4
_cell_length_a         4.8201125863
_cell_length_b         9.9788686732
_cell_length_c        29.7085910776
_cell_angle_alpha        89.9989
_cell_angle_beta        82.7395
_cell_angle_gamma        90.0010
_cell_volume          1417.503824
_space_group_crystal_system monoclinic
_space_group_IT_number 14
_space_group_name_H-M_alt 'P2_1/c'
_space_group_name_Hall '-P 2ybc'
loop_
_symmetry_equiv_pos_site_id
_symmetry_equiv_pos_as_xyz
 1 'x,y,z'
 2 '-x,-y,-z'
 3 '-x,-1/2+y,-1/2-z'
 4 'x,-1/2-y,-1/2+z'
loop_
_atom_site_label
_atom_site_type_symbol
_atom_site_fract_x
_atom_site_fract_y
_atom_site_fract_z
H1    H     0.09379763924665 0.37368764020623 0.31436330010773 
H2    H     0.08146608962296 0.37468792048741 0.23250233984143 
H3    H     0.74437809986973 0.22846151964821 0.19776186014791 
H4    H     0.42991798022256 0.07604523965372 0.24694070009624 
H5    H     0.28002267967117 0.97677468988575 0.32017696008995 
H6    H     0.36996379899555 0.93733946021823 0.39959620999256 
H7    H     0.63699862014741 0.97895521972757 0.46092552007427 
H8    H     0.61529382100270 0.46842401991681 0.34950112987807 
H9    H     0.99186413082414 0.11392421018170 0.49551277007398 
H10   H     0.28851334928674 0.30715468982006 0.49507812015984 
H11   H     0.38947799001881 0.54248570963640 0.47098017003423 
H12   H     0.63079875926137 0.71228170970820 0.34050241998291 
H13   H     0.24254354938929 0.73897709013585 0.43383739995993 
H14   H     0.94579414077443 0.85083328982946 0.38167966005244 
C1    C     0.94111235071664 0.31145629031115 0.30030381008327 
C2    C     0.76010499956695 0.22856100974214 0.32960021993935 
C3    C     0.77229489044722 0.22024429953138 0.37815931996897 
C4    C     0.91067829030307 0.31588691012140 0.40427418013737 
C5    C     0.93468687966501 0.31160864983681 0.25391751006954 
C6    C     0.58038929922592 0.13912655013691 0.30904263015621 
C7    C     0.65501217987737 0.10416409035901 0.40102958985661 
C8    C     0.93109452927783 0.45889625001578 0.39524885012546 
C9    C     0.01191228011701 0.26937705006394 0.44446870000259 
C10   C     0.74569228045647 0.22862414977587 0.23435138989229 
C11   C     0.57210691013950 0.14358621022498 0.26159038992127 
C12   C     0.42432124911111 0.03993683037269 0.33601227983739 
C13   C     0.47125842924744 0.01950043043347 0.37981294999957 
C14   C     0.10190429991223 0.53990622046301 0.42046536011435 
C15   C     0.72702273093868 0.06955943982604 0.44454544007329 
C16   C     0.76101720989270 0.52602129987158 0.36677831986360 
C17   C     0.91883338047083 0.14437823032946 0.46382138003847 
C18   C     0.19652640037473 0.35063852043176 0.46676456998404 
C19   C     0.24974013991217 0.48013033024223 0.45392114984257 
C20   C     0.76729990029138 0.66368207981384 0.36202092996950 
C21   C     0.10849900013214 0.68057430962525 0.41432021988701 
C22   C     0.94457075969682 0.74232737035731 0.38555842013852 
