data_stdin
_audit_creation_method 'critic2'
_audit_creation_date 2023-8-11
_chemical_formula_sum 'C22 H14'
_cell_formula_units_Z 16
_cell_length_a        38.3394969416
_cell_length_b        26.8749122731
_cell_length_c         5.6568372264
_cell_angle_alpha        89.9996
_cell_angle_beta        90.0016
_cell_angle_gamma        90.0416
_cell_volume          5828.637320
_space_group_crystal_system monoclinic
_space_group_IT_number 5
_space_group_name_H-M_alt 'C2'
_space_group_name_Hall 'C 2y'
loop_
_symmetry_equiv_pos_site_id
_symmetry_equiv_pos_as_xyz
 1 'x,y,z'
 2 '-x,-y,z'
 3 '-1/2+x,y,-1/2+z'
 4 '-1/2-x,-y,-1/2+z'
 5 'x,-1/2+y,-1/2+z'
 6 '-x,-1/2-y,-1/2+z'
 7 '-1/2+x,-1/2+y,z'
 8 '-1/2-x,-1/2-y,z'
loop_
_atom_site_label
_atom_site_type_symbol
_atom_site_fract_x
_atom_site_fract_y
_atom_site_fract_z
H1    H     0.49933283993943 0.11788522007237 0.51543996952532 
H2    H     0.75067080003016 0.36791882018325 0.76570239073411 
H3    H     0.43819759010298 0.10256074992433 0.40956391074109 
H4    H     0.81183935003713 0.35279734982575 0.66035213945497 
H5    H     0.41465766989972 0.13021518994612 0.02177823023528 
H6    H     0.83542830001335 0.38050973987573 0.27277282048598 
H7    H     0.45242709007923 0.18085029989991 0.75417837038330 
H8    H     0.79767212995484 0.43100368988636 0.00475233082658 
H9    H     0.50572445004353 0.22677170014735 0.68189494075921 
H10   H     0.74434932002918 0.47670968986448 0.93189947022848 
H11   H     0.56087147002918 0.26128988011946 0.83836658024680 
H12   H     0.68915392992605 0.51105521999517 0.08785435037294 
H13   H     0.60428507998820 0.26617596015785 0.14482799922134 
H14   H     0.64567966987283 0.51582230017976 0.39405854934717 
H15   H     0.53708083010251 0.06835295001476 0.18429526064616 
H16   H     0.71295052997568 0.31823471989123 0.43413903971442 
H17   H     0.63049802005942 0.23484519017171 0.52103994052896 
H18   H     0.61945544986959 0.48445301993038 0.77024072011445 
H19   H     0.63249425002703 0.17403440009078 0.83393879996464 
H20   H     0.61751305990678 0.42369416992174 0.08359456020667 
H21   H     0.61402410994606 0.09343591007894 0.00763862986574 
H22   H     0.63603250988320 0.34319032993630 0.25755805925302 
H23   H     0.53011672005482 0.98148502013106 0.31021460986361 
H24   H     0.71990328990833 0.23137284989714 0.56004958997751 
H25   H     0.58359125990441 0.01336985999551 0.95982379048995 
H26   H     0.66644647999187 0.26315297013857 0.20968152950509 
H27   H     0.54966723995018 0.95479205986544 0.71313906961473 
H28   H     0.70036813005732 0.20464802002600 0.96298615946230 
C1    C     0.48971357987979 0.13035295994540 0.34478894971335 
C2    C     0.76031329991365 0.38040358999930 0.59511027932138 
C3    C     0.51234936991857 0.15688237993186 0.19194230087834 
C4    C     0.73768806997919 0.40684627985777 0.44203369996743 
C5    C     0.54817570011235 0.16909448987009 0.25359069924395 
C6    C     0.70184649011448 0.41894884997500 0.50339692914972 
C7    C     0.56856516003914 0.14398481006089 0.43127785998027 
C8    C     0.68145311004419 0.39379145011595 0.68103332045937 
C9    C     0.45525210009641 0.12162666982277 0.28538831050226 
C10   C     0.79479142010545 0.37179391018377 0.53601078027695 
C11   C     0.49758315006007 0.17726412984935 0.98066489980113 
C12   C     0.75247688988493 0.42726327007938 0.23084340924090 
C13   C     0.56323440001596 0.21112815987846 0.13925404042685 
C14   C     0.68677624001166 0.46092158994075 0.38887331977401 
C15   C     0.56366091006428 0.09249304007973 0.50184058072008 
C16   C     0.68637273995549 0.34231722990850 0.75167755944094 
C17   C     0.59678314002608 0.17021209982270 0.53780099937295 
C18   C     0.65321565002439 0.41994178985106 0.78740062916757 
C19   C     0.44173680995092 0.13800665990166 0.06722385965160 
C20   C     0.80833479003796 0.38820968017713 0.31794690049450 
C21   C     0.46269178000302 0.16569634990716 0.91838102915815 
C22   C     0.78738819987995 0.41581722999899 0.16887610059347 
C23   C     0.51693382009191 0.21257471001863 0.84512904982532 
C24   C     0.73312201988824 0.46249266013871 0.09508126086358 
C25   C     0.54758566004578 0.23113627998204 0.93068140000957 
C26   C     0.70244306997726 0.48095669017195 0.18035198083771 
C27   C     0.57946284988016 0.07494761986424 0.71539598080586 
C28   C     0.67057719993756 0.32474494987502 0.96525954923584 
C29   C     0.59380298005971 0.23349248983087 0.23383859959542 
C30   C     0.65617913998200 0.48318863017667 0.48322129973598 
C31   C     0.54664663988669 0.05702122982353 0.35686195072777 
C32   C     0.70338854006901 0.30688210999149 0.60670987992704 
C33   C     0.60868640987056 0.21565374993813 0.43710392008624 
C34   C     0.64128861001728 0.46532484008627 0.68647753048895 
C35   C     0.61292015993763 0.15106449001506 0.74659619046986 
C36   C     0.63709296997278 0.40077316989968 0.99627103006086 
C37   C     0.60305434007966 0.10645200997004 0.84098630912627 
C38   C     0.64698357004145 0.35620564991136 0.09081216941996 
C39   C     0.54259839996208 0.00811998006350 0.42774018913210 
C40   C     0.70743403989103 0.25798851983695 0.67759751940351 
C41   C     0.57301875999346 0.02551027007097 0.79099953954423 
C42   C     0.67702383007756 0.27532165002054 0.04088577085855 
C43   C     0.55447086989048 0.99262662983469 0.65174523994883 
C44   C     0.69556685010578 0.24247511002413 0.90161031086356 
