data_stdin
_audit_creation_method 'critic2'
_audit_creation_date 2023-8-11
_chemical_formula_sum 'C22 H14'
_cell_formula_units_Z 4
_cell_length_a         8.7167386141
_cell_length_b         4.9094838135
_cell_length_c        34.6322429843
_cell_angle_alpha        89.9914
_cell_angle_beta        91.8157
_cell_angle_gamma        90.0069
_cell_volume          1481.331878
_space_group_crystal_system monoclinic
_space_group_IT_number 14
_space_group_name_H-M_alt 'P2_1/c'
_space_group_name_Hall '-P 2ybc'
loop_
_symmetry_equiv_pos_site_id
_symmetry_equiv_pos_as_xyz
 1 'x,y,z'
 2 '-x,-y,-z'
 3 '-x,-1/2+y,-1/2-z'
 4 'x,-1/2-y,-1/2+z'
loop_
_atom_site_label
_atom_site_type_symbol
_atom_site_fract_x
_atom_site_fract_y
_atom_site_fract_z
H1    H     0.73306954948936 0.74711204991322 0.64970973999113 
H2    H     0.51990880016782 0.81253110914698 0.69278900989926 
H3    H     0.52225038991456 0.19841306087251 0.74003641007500 
H4    H     0.75415177990358 0.49463374087502 0.74626682995674 
H5    H     0.01325256994469 0.60653742089431 0.72886070997216 
H6    H     0.24912054990276 0.47877836028119 0.69531279994016 
H7    H     0.38459694970333 0.17694416924057 0.65325388999862 
H8    H     0.72796635953988 0.18304126993148 0.60554337992268 
H9    H     0.38523544983404 0.78664324928595 0.60766347007508 
H10   H     0.24820813013918 0.46448490988724 0.56662724999325 
H11   H     0.00994062006989 0.32233830020466 0.53118677993162 
H12   H     0.51220743984924 0.10972941985653 0.55984760990186 
H13   H     0.74913050951719 0.43166162000476 0.51000258999765 
H14   H     0.51610161036832 0.72548538077338 0.51268429994833 
C1    C     0.73606125955955 0.91815232950340 0.66957669003817 
C2    C     0.86527518020926 0.09346288043544 0.67062692990704 
C3    C     0.99585614004680 0.05448039091232 0.64618043006846 
C4    C     0.99516488943164 0.88674577054318 0.61191960989135 
C5    C     0.61608263027209 0.95403633012584 0.69418099989421 
C6    C     0.87264388045002 0.29677891958770 0.70026103002678 
C7    C     0.13753934010628 0.17425356030896 0.65874578011571 
C8    C     0.86260188953921 0.84118097050527 0.58622927986755 
C9    C     0.13717051999723 0.77260233047252 0.60075039001257 
C10   C     0.61866619972365 0.16858656093930 0.72124901006123 
C11   C     0.74626528994795 0.33468566055308 0.72445844007284 
C12   C     0.01086280000358 0.44748361912524 0.70697960986665 
C13   C     0.14044884053891 0.37822150038501 0.68816483012763 
C14   C     0.86955090978896 0.63580027990601 0.55697740013555 
C15   C     0.27739747984538 0.08421540901034 0.64297482011597 
C16   C     0.73129145031796 0.01168191040936 0.58577927990883 
C17   C     0.27765526989875 0.87214108980164 0.61731677997556 
C18   C     0.13914614972747 0.56361345925711 0.57207473004154 
C19   C     0.00836869036052 0.48685736933769 0.55225883986535 
C20   C     0.60979495040595 0.97128201999959 0.55980955011779 
C21   C     0.74164705971065 0.59321668057664 0.53141747989221 
C22   C     0.61292348046672 0.75641429906496 0.53285255013887 
