data_stdin
_audit_creation_method 'critic2'
_audit_creation_date 2023-8-11
_chemical_formula_sum 'C22 H14'
_cell_formula_units_Z 4
_cell_length_a        11.4560582931
_cell_length_b         9.9877415900
_cell_length_c        13.1580455810
_cell_angle_alpha        90.0000
_cell_angle_beta        71.8817
_cell_angle_gamma        90.0000
_cell_volume          1430.895010
_space_group_crystal_system monoclinic
_space_group_IT_number 14
_space_group_name_H-M_alt 'P2_1/c'
_space_group_name_Hall '-P 2ybc'
loop_
_symmetry_equiv_pos_site_id
_symmetry_equiv_pos_as_xyz
 1 'x,y,z'
 2 '-x,-y,-z'
 3 '-x,-1/2+y,-1/2-z'
 4 'x,-1/2-y,-1/2+z'
loop_
_atom_site_label
_atom_site_type_symbol
_atom_site_fract_x
_atom_site_fract_y
_atom_site_fract_z
H1    H     0.21632178042765 0.63577497963253 0.73835847976673 
H2    H     0.32831618982548 0.42729410955177 0.67857499976622 
H3    H     0.55723618024904 0.42912611985531 0.59707541038900 
H4    H     0.66822194032156 0.64516900001228 0.56931758002195 
H5    H     0.66692862025036 0.89077530020380 0.56966911032957 
H6    H     0.54669423026591 0.09988252002217 0.58677123996459 
H7    H     0.35301784996564 0.21403009976292 0.62896714039362 
H8    H     0.29785858993369 0.72646523981459 0.89329697965129 
H9    H     0.12504732998964 0.21533109007430 0.71073238028907 
H10   H     0.93969855005178 0.11145798994128 0.82144757983610 
H11   H     0.83280394962986 0.93228940009555 0.94431927018397 
H12   H     0.19719016972508 0.58289981985475 0.04747295997767 
H13   H     0.84511404010341 0.73948227984584 0.05584072005146 
H14   H     0.96895490984907 0.57978313984088 0.12403378960901 
C1    C     0.31539730034482 0.63899648999178 0.70283427959913 
C2    C     0.37643002995473 0.76407799981032 0.69148477009751 
C3    C     0.31159964032986 0.89011959958087 0.72151814967103 
C4    C     0.18735671975035 0.90319215028699 0.79231102994730 
C5    C     0.37869539992649 0.52126571992567 0.66874297982056 
C6    C     0.50596936965440 0.76540285017894 0.63744861026329 
C7    C     0.37263003003864 0.00791125959309 0.67110801029259 
C8    C     0.12994210011629 0.81327134034390 0.88057478029083 
C9    C     0.11877997028356 0.01765131002396 0.78023731009171 
C10   C     0.50724714045422 0.52219498022766 0.62239302986125 
C11   C     0.56914331982870 0.64264394036726 0.60718441994825 
C12   C     0.56785161999075 0.89022068000124 0.60784524976779 
C13   C     0.50187102997255 0.00593874989029 0.61850785006820 
C14   C     0.00026776972921 0.82145167983860 0.93261301973055 
C15   C     0.30422918011586 0.12675190021911 0.67107565978647 
C16   C     0.19837202999630 0.72714687008500 0.92636977030630 
C17   C     0.17935313999776 0.12812639017094 0.71725036988862 
C18   C     0.98987761015690 0.02397338961154 0.83450089990497 
C19   C     0.93127078982850 0.92575816014646 0.90385830019058 
C20   C     0.14192271964456 0.64608517007776 0.01285773988326 
C21   C     0.94405248013072 0.73305994039362 0.01799256000744 
C22   C     0.01297418997617 0.64579684045027 0.05728735013616 
