data_stdin
_audit_creation_method 'critic2'
_audit_creation_date 2023-8-11
_chemical_formula_sum 'C22 H14'
_cell_formula_units_Z 8
_cell_length_a        19.9880510500
_cell_length_b        16.5963139500
_cell_length_c         8.7013022812
_cell_angle_alpha        90.0006
_cell_angle_beta        90.0008
_cell_angle_gamma        90.0000
_cell_volume          2886.465346
_space_group_crystal_system orthorhombic
_space_group_IT_number 61
_space_group_name_H-M_alt 'Pbca'
_space_group_name_Hall '-P 2ac 2ab'
loop_
_symmetry_equiv_pos_site_id
_symmetry_equiv_pos_as_xyz
 1 'x,y,z'
 2 '-x,-y,-z'
 3 '-x,-1/2+y,-1/2-z'
 4 'x,-1/2-y,-1/2+z'
 5 '-1/2-x,-y,-1/2+z'
 6 '-1/2+x,y,-1/2-z'
 7 '-1/2+x,-1/2-y,-z'
 8 '-1/2-x,-1/2+y,z'
loop_
_atom_site_label
_atom_site_type_symbol
_atom_site_fract_x
_atom_site_fract_y
_atom_site_fract_z
H1    H     0.86148640997588 0.79760446004727 0.45152777023065 
H2    H     0.77922367988872 0.77337289022566 0.24842344968932 
H3    H     0.66423586977044 0.83071324017630 0.26779726038320 
H4    H     0.63105354016990 0.90597510028897 0.50329313989792 
H5    H     0.65414107017090 0.95075904023479 0.76160007952727 
H6    H     0.72812724000251 0.94733497982046 0.99087394955428 
H7    H     0.82802308996235 0.90252531004781 0.11468446980811 
H8    H     0.88345010015960 0.94991790014016 0.44904224951756 
H9    H     0.94152677987538 0.84111065015745 0.10232137039628 
H10   H     0.03725410989264 0.80099781973207 0.95890611046308 
H11   H     0.10311570990724 0.80045019978577 0.71696342951373 
H12   H     0.95897149999556 0.97988908993819 0.23481324966187 
H13   H     0.11750022979033 0.85059651990009 0.46059741948756 
H14   H     0.07577942001665 0.92823908995146 0.23419309983900 
C1    C     0.81195635993630 0.82387274971531 0.46209708025712 
C2    C     0.79568289993170 0.86921613006012 0.59517450974619 
C3    C     0.84210656021070 0.88100436986177 0.72198185978311 
C4    C     0.91358619010717 0.86745138012712 0.71437352979904 
C5    C     0.76549092013982 0.80982970984941 0.34744921959508 
C6    C     0.72779122015310 0.89583531012432 0.61099148048449 
C7    C     0.81391808024642 0.90067875020463 0.86776066944962 
C8    C     0.95506100002845 0.87974086974560 0.57904127944153 
C9    C     0.94716349012929 0.84742806025618 0.85379000991216 
C10   C     0.70028944005736 0.84140073979691 0.35919156056138 
C11   C     0.68189558005875 0.88344953985889 0.48934518016666 
C12   C     0.70553352975679 0.92942564003054 0.75304296979649 
C13   C     0.74630345992713 0.92794327012271 0.87877025959660 
C14   C     0.02370839984842 0.85500623969960 0.58198753044760 
C15   C     0.85167029017253 0.88942289980610 0.00469667987840 
C16   C     0.93373132016585 0.92523509011455 0.45009348056194 
C17   C     0.91444710019459 0.85684455027013 0.99793177012464 
C18   C     0.01506623994056 0.82093883006300 0.85123081000872 
C19   C     0.05134441016384 0.82096687978138 0.71839504026076 
C20   C     0.97623708980292 0.94224982977980 0.32929627047279 
C21   C     0.06559904014465 0.87053048970615 0.45407734954848 
C22   C     0.04254856000565 0.91345283990853 0.32919433944477 
