data_stdin
_audit_creation_method 'critic2'
_audit_creation_date 2023-8-11
_chemical_formula_sum 'C22 H14'
_cell_formula_units_Z 8
_cell_length_a        38.4971956137
_cell_length_b         4.8177548475
_cell_length_c        16.9849553883
_cell_angle_alpha        89.9960
_cell_angle_beta        68.7078
_cell_angle_gamma        90.0036
_cell_volume          2935.169317
_space_group_crystal_system monoclinic
_space_group_IT_number 15
_space_group_name_H-M_alt 'C2/c'
_space_group_name_Hall '-C 2yc'
loop_
_symmetry_equiv_pos_site_id
_symmetry_equiv_pos_as_xyz
 1 'x,y,z'
 2 '-1/2-x,-1/2-y,-z'
 3 '-1/2-x,-1/2+y,-1/2-z'
 4 'x,-y,-1/2+z'
 5 '-1/2+x,-1/2+y,z'
 6 '-x,-y,-z'
 7 '-x,y,-1/2-z'
 8 '-1/2+x,-1/2-y,-1/2+z'
loop_
_atom_site_label
_atom_site_type_symbol
_atom_site_fract_x
_atom_site_fract_y
_atom_site_fract_z
H1    H     0.38908070999327 0.49139697998056 0.00799758002187 
H2    H     0.43228620990921 0.44913678995431 0.86232571012965 
H3    H     0.48087220985920 0.07350718950613 0.82149942010917 
H4    H     0.48728100996707 0.76726397939381 0.93272754025310 
H5    H     0.46875062004851 0.62924803994514 0.07976115970338 
H6    H     0.43353544991308 0.73452836055894 0.23073281030868 
H7    H     0.39123603000053 0.02806192031445 0.33805331010694 
H8    H     0.34913174010589 0.03194426098649 0.03658123980694 
H9    H     0.34407920999305 0.40740246089553 0.37988985972997 
H10   H     0.30266123989121 0.72355298098904 0.34541088999756 
H11   H     0.27074920002310 0.87483463083234 0.25027707014240 
H12   H     0.30770027001985 0.11057836975526 0.95919922004317 
H13   H     0.25482218002051 0.78483403987709 0.12689275973178 
H14   H     0.26164568991298 0.50266565034499 0.99910565997825 
C1    C     0.40929260999466 0.32381927940303 0.99166846977810 
C2    C     0.41068355005834 0.14117907949326 0.05590650023742 
C3    C     0.38597504010219 0.16641557945305 0.14371877973510 
C4    C     0.35193009008211 0.32587986972332 0.17269589984411 
C5    C     0.43391824002264 0.30042551009118 0.90917512975801 
C6    C     0.44058283010550 0.94447365062757 0.03357722970301 
C7    C     0.39782267004512 0.04213306014149 0.20577091997228 
C8    C     0.32822217989470 0.37270518074890 0.12418387008287 
C9    C     0.33916951009323 0.43019335919935 0.25682011999686 
C10   C     0.46158349003211 0.09269601067642 0.88660004995298 
C11   C     0.46500807006470 0.92051477020588 0.94833843987467 
C12   C     0.44680477999802 0.78531146078661 0.09807047972189 
C13   C     0.42724145988171 0.84223025022000 0.18113542031130 
C14   C     0.29923433999259 0.57610888959905 0.15224671987924 
C15   C     0.38120304006903 0.12301214925988 0.29203227031426 
C16   C     0.32968692999866 0.20445267905411 0.05465807003815 
C17   C     0.35474301003767 0.32789459084528 0.31542976003226 
C18   C     0.31010906990040 0.63281880080754 0.28279096015424 
C19   C     0.29217889995212 0.71523057052586 0.23063726983059 
C20   C     0.30608651001459 0.24895511014630 0.01110734999166 
C21   C     0.27610602998197 0.62407872978041 0.10501634030015 
C22   C     0.27969267991111 0.46580405960186 0.03473702996812 
