data_stdin
_audit_creation_method 'critic2'
_audit_creation_date 2023-8-11
_chemical_formula_sum 'C22 H14'
_cell_formula_units_Z 4
_cell_length_a         8.8153675253
_cell_length_b        11.9936288600
_cell_length_c        14.2478575975
_cell_angle_alpha        90.0000
_cell_angle_beta        71.9124
_cell_angle_gamma        90.0000
_cell_volume          1431.958697
_space_group_crystal_system monoclinic
_space_group_IT_number 9
_space_group_name_H-M_alt 'Cc'
_space_group_name_Hall 'C -2yc'
loop_
_symmetry_equiv_pos_site_id
_symmetry_equiv_pos_as_xyz
 1 'x,y,z'
 2 'x,-y,-1/2+z'
 3 '-1/2+x,-1/2+y,z'
 4 '-1/2+x,-1/2-y,-1/2+z'
loop_
_atom_site_label
_atom_site_type_symbol
_atom_site_fract_x
_atom_site_fract_y
_atom_site_fract_z
H1    H     0.00166393026474 0.04481150999581 0.99397850978989 
H2    H     0.76208358003518 0.92914164962200 0.04407647982852 
H3    H     0.68349686043253 0.82896403989387 0.20521996013602 
H4    H     0.86548389968622 0.83397613967685 0.30888770980167 
H5    H     0.11532416967397 0.88790112966252 0.33240290982499 
H6    H     0.38223035051985 0.97374202028813 0.26641082989930 
H7    H     0.57779951012115 0.07496405958423 0.13976828034771 
H8    H     0.93579445022103 0.20506229037610 0.12513799977169 
H9    H     0.65820427988877 0.17483449030864 0.97984684973177 
H10   H     0.59003131063071 0.27596329003818 0.85303600972402 
H11   H     0.38960356979255 0.36172449994303 0.78680812981566 
H12   H     0.74674524019579 0.32087138967868 0.07493877036390 
H13   H     0.11621842991572 0.41580739012810 0.81018752006946 
H14   H     0.83016163015804 0.42100906967651 0.91378019987659 
C1    C     0.96972578005761 0.00326526036311 0.06513194978714 
C2    C     0.06927345998322 0.01551701996787 0.12580310003700 
C3    C     0.21344922019304 0.08301892039050 0.09813898973189 
C4    C     0.25215762025938 0.16675068976364 0.02114517969113 
C5    C     0.83432477040403 0.93764207037409 0.09320078978295 
C6    C     0.03252563977765 0.94810875040477 0.21315387030175 
C7    C     0.33039567943804 0.05815811023800 0.14520974002097 
C8    C     0.13586208975403 0.23426428036269 0.99337420999435 
C9    C     0.41637759036562 0.19160312982403 0.97418591027194 
C10   C     0.79120755944205 0.87968857002686 0.18369977013890 
C11   C     0.89082120032079 0.88355257968178 0.24164608968849 
C12   C     0.14425471954922 0.94034711970407 0.26690966981105 
C13   C     0.29089217962047 0.98908824027077 0.23107823985129 
C14   C     0.18694155971109 0.30163066960524 0.90600197981098 
C15   C     0.48975591962649 0.09668705004470 0.10358625972682 
C16   C     0.97539643959232 0.24659470985306 0.05397985977866 
C17   C     0.53382259974320 0.15310215022534 0.01593662026730 
C18   C     0.46321309034625 0.26062513991517 0.88829187005133 
C19   C     0.35266437014895 0.30933039027311 0.85233040016000 
C20   C     0.86830019947723 0.31228821040757 0.02584833020814 
C21   C     0.07396176997544 0.36624552021637 0.87743297990641 
C22   C     0.91617003972547 0.37021416010004 0.93533645005832 
