data_stdin
_audit_creation_method 'critic2'
_audit_creation_date 2023-8-11
_chemical_formula_sum 'C22 H14'
_cell_formula_units_Z 4
_cell_length_a         5.2676754428
_cell_length_b        16.4109469848
_cell_length_c        16.8853313362
_cell_angle_alpha        89.9979
_cell_angle_beta        89.8148
_cell_angle_gamma        90.0014
_cell_volume          1459.687768
_space_group_crystal_system monoclinic
_space_group_IT_number 14
_space_group_name_H-M_alt 'P2_1/c'
_space_group_name_Hall '-P 2ybc'
loop_
_symmetry_equiv_pos_site_id
_symmetry_equiv_pos_as_xyz
 1 'x,y,z'
 2 '-x,-y,-z'
 3 '-x,-1/2+y,-1/2-z'
 4 'x,-1/2-y,-1/2+z'
loop_
_atom_site_label
_atom_site_type_symbol
_atom_site_fract_x
_atom_site_fract_y
_atom_site_fract_z
H1    H     0.06337566036155 0.19504668976756 0.11725042025405 
H2    H     0.16655003968203 0.07562948972669 0.19724051024972 
H3    H     0.55645964980674 0.99336627983395 0.16854406996896 
H4    H     0.82144386083607 0.02843091014837 0.05137411985813 
H5    H     0.90198974024752 0.11042557979235 0.93453103022893 
H6    H     0.74639766049447 0.21188858005272 0.83742385996203 
H7    H     0.42650448089843 0.30772339985210 0.79426648007344 
H8    H     0.43663636924641 0.29739968024263 0.14561790021583 
H9    H     0.03807185991356 0.38940170992673 0.82187441028010 
H10   H     0.72723130028905 0.44100217008944 0.91189090999629 
H11   H     0.57910670054205 0.46707814975455 0.04970413986381 
H12   H     0.34478634054706 0.35160634010735 0.27783349014245 
H13   H     0.67260667029049 0.46890841013057 0.18909718019037 
H14   H     0.95498123029265 0.43462466026201 0.30214755017968 
C1    C     0.23554093910800 0.16116972021650 0.10420736987262 
C2    C     0.39120705913775 0.18579762996039 0.03990935014172 
C3    C     0.33108522951801 0.25513789022936 0.98977768974070 
C4    C     0.15451843978443 0.31916151013617 0.01016386994123 
C5    C     0.29358983958674 0.09341106008939 0.14929571017474 
C6    C     0.60031316014748 0.13400473997111 0.01936610029008 
C7    C     0.44255019987250 0.25662868014873 0.91281459008788 
C8    C     0.10094651084214 0.34746681022273 0.09007234017651 
C9    C     0.03540840956258 0.36202156030143 0.94708038981181 
C10   C     0.51100560046115 0.04635297990422 0.13247630975413 
C11   C     0.65937156954714 0.06614309021297 0.06773220006656 
C12   C     0.73687580975182 0.14811126019186 0.94759322001292 
C13   C     0.65240431012850 0.20465799025844 0.89458944004237 
C14   C     0.88986432915690 0.40082178975210 0.10327069027382 
C15   C     0.34143353085077 0.30848806991884 0.85318344026883 
C16   C     0.26413533033185 0.33236091008308 0.15502419012281 
C17   C     0.13047023027269 0.35461204029271 0.86853626016198 
C18   C     0.82349733999408 0.41388792996555 0.96244461993950 
C19   C     0.74406943951337 0.42912904000588 0.03787695013666 
C20   C     0.21364250966075 0.36346301974794 0.22952602978220 
C21   C     0.83761356048913 0.42982345982208 0.18060348010442 
C22   C     0.99545424037396 0.41117931000553 0.24313190985391 
