data_stdin
_audit_creation_method 'critic2'
_audit_creation_date 2023-8-11
_chemical_formula_sum 'C22 H14'
_cell_formula_units_Z 4
_cell_length_a         7.6701516824
_cell_length_b        10.0375738814
_cell_length_c        18.9327393473
_cell_angle_alpha        90.0010
_cell_angle_beta        84.6972
_cell_angle_gamma        90.0003
_cell_volume          1451.387795
_space_group_crystal_system monoclinic
_space_group_IT_number 14
_space_group_name_H-M_alt 'P2_1/c'
_space_group_name_Hall '-P 2ybc'
loop_
_symmetry_equiv_pos_site_id
_symmetry_equiv_pos_as_xyz
 1 'x,y,z'
 2 '-x,-y,-z'
 3 '-x,-1/2+y,-1/2-z'
 4 'x,-1/2-y,-1/2+z'
loop_
_atom_site_label
_atom_site_type_symbol
_atom_site_fract_x
_atom_site_fract_y
_atom_site_fract_z
H1    H     0.95108113087390 0.09479771376309 0.53886463145235 
H2    H     0.71093027959902 0.94104843248852 0.51977023486158 
H3    H     0.43767319877112 0.94148005395073 0.60144675087037 
H4    H     0.41639532043084 0.08766914500273 0.70810157162498 
H5    H     0.54663413093756 0.24882573385928 0.78423384707386 
H6    H     0.81022502409969 0.37066974489706 0.81583027747766 
H7    H     0.11446421385538 0.42835673288389 0.79266639241973 
H8    H     0.81746634297008 0.32994212271863 0.52107382812985 
H9    H     0.39016262850088 0.42562700847075 0.71308664863011 
H10   H     0.54536210540640 0.38405418231262 0.59860913511068 
H11   H     0.54139683235289 0.35291806206826 0.46894089639441 
H12   H     0.81261776822946 0.35998799482513 0.39251072462764 
H13   H     0.37474606629648 0.36003142694050 0.36653986697482 
H14   H     0.08943510668476 0.36901023576673 0.31363651200097 
C1    C     0.83301623892798 0.09645729364980 0.57523981346571 
C2    C     0.82190656000791 0.18684581995460 0.63308599715740 
C3    C     0.96250866046811 0.27790349190739 0.64638039095596 
C4    C     0.10770055807263 0.31172893632829 0.59542533386977 
C5    C     0.69807941111955 0.00982779106503 0.56437169048652 
C6    C     0.67083713337238 0.17767514514511 0.68339158988502 
C7    C     0.96246845321482 0.33095042320479 0.71618842635094 
C8    C     0.09964128373963 0.31981502201427 0.51917095276492 
C9    C     0.26673456456507 0.35276308703339 0.62210925598408 
C10   C     0.54445068907337 0.00844493004989 0.61136958057806 
C11   C     0.53245299051164 0.09014627612334 0.67025368825858 
C12   C     0.66482887339660 0.25253175510970 0.74765709195900 
C13   C     0.80864444867200 0.32169614000468 0.76452062829911 
C14   C     0.25848112728740 0.33490551806015 0.47384237869770 
C15   C     0.11671753198264 0.39005643590878 0.73874534324611 
C16   C     0.94001750184710 0.33079219017425 0.48745713200731 
C17   C     0.26818024055881 0.39040053707907 0.69449227301618 
C18   C     0.42361475070597 0.36223643286653 0.57557168487268 
C19   C     0.42124607508597 0.34614245996592 0.50412710913323 
C20   C     0.93692766850021 0.34798215013542 0.41519532077724 
C21   C     0.25170695958938 0.34916046384213 0.39973740332615 
C22   C     0.09387029472307 0.35521402940601 0.37040927258902 
