data_stdin
_audit_creation_method 'critic2'
_audit_creation_date 2023-8-11
_chemical_formula_sum 'C22 H14'
_cell_formula_units_Z 8
_cell_length_a         8.9214824292
_cell_length_b         7.7239393998
_cell_length_c        41.4797053755
_cell_angle_alpha        90.0101
_cell_angle_beta        90.0054
_cell_angle_gamma        89.9999
_cell_volume          2858.324531
_space_group_crystal_system monoclinic
_space_group_IT_number 14
_space_group_name_H-M_alt 'P2_1/c'
_space_group_name_Hall '-P 2ybc'
loop_
_symmetry_equiv_pos_site_id
_symmetry_equiv_pos_as_xyz
 1 'x,y,z'
 2 '-x,-y,-z'
 3 '-1/2+x,-1/2-y,-z'
 4 '-1/2-x,-1/2+y,z'
loop_
_atom_site_label
_atom_site_type_symbol
_atom_site_fract_x
_atom_site_fract_y
_atom_site_fract_z
H1    H     0.11879459982013 0.40838477024292 0.37820790007731 
H2    H     0.88114353946475 0.90840418974882 0.12179930005279 
H3    H     0.32911471005247 0.44886648041237 0.41549946011017 
H4    H     0.67082555048506 0.94885759038444 0.08450595008848 
H5    H     0.32200179969561 0.31930155956314 0.47041633997698 
H6    H     0.67794164950727 0.81925100981794 0.02958766990385 
H7    H     0.09046098981025 0.17268617991545 0.48922724997763 
H8    H     0.90949581047501 0.67264036041208 0.01077135992598 
H9    H     0.83372357967346 0.07584219978515 0.48002187007717 
H10   H     0.16621884035470 0.57579891060356 0.01997367002895 
H11   H     0.60376836045733 0.08965979949076 0.44676643998778 
H12   H     0.39617055984125 0.58960296960423 0.05323244009991 
H13   H     0.47408393995047 0.18651728984960 0.40029226992758 
H14   H     0.52585427978639 0.68653203946813 0.09970362001353 
H15   H     0.11829188049850 0.09566206980063 0.36578358998145 
H16   H     0.88162751027174 0.59569122061935 0.13421464000581 
H17   H     0.47260847974055 0.31509719951941 0.34526955003182 
H18   H     0.52733525990095 0.81514130986118 0.15473184008842 
H19   H     0.60103438980836 0.42532066978643 0.29968907992764 
H20   H     0.39893212960462 0.92534507035903 0.20031819994075 
H21   H     0.83081431055451 0.44031049969115 0.26565135001968 
H22   H     0.16917151043921 0.94028034003054 0.23436474990901 
H23   H     0.32127338019367 0.04557379995756 0.32709487998854 
H24   H     0.67866498980364 0.54561431054277 0.17290706002316 
H25   H     0.07908961027168 0.32952003056092 0.25483630996607 
H26   H     0.92091893985772 0.82950391939061 0.24517685994869 
H27   H     0.30754114966319 0.16914964016093 0.27164416010647 
H28   H     0.69243441038448 0.66916736935316 0.22836290000354 
C1    C     0.11346471001395 0.35031210000551 0.40199135004394 
C2    C     0.88647721000068 0.85031332044368 0.09801394007044 
C3    C     0.98320296032055 0.25661808966906 0.41090600992146 
C4    C     0.01673883945411 0.75660924045034 0.08909673003503 
C5    C     0.85435910980805 0.23664665941809 0.38973800000484 
C6    C     0.14558023012049 0.73664577983038 0.11026416003622 
C7    C     0.85363708026068 0.27035997034790 0.35538357004074 
C8    C     0.14630660045854 0.77037115952266 0.14462054999437 
C9    C     0.23200738006984 0.37370300047702 0.42296837989782 
C10   C     0.76793678981213 0.87368619048633 0.07703702010263 
C11   C     0.97443874010079 0.19756242030552 0.44365012011753 
C12   C     0.02550535961509 0.69753851969019 0.05635007999168 
C13   C     0.71536350029941 0.19444013039885 0.40471793990251 
C14   C     0.28457591054692 0.69443003941598 0.09528225003238 
C15   C     0.98084581022292 0.24934398944103 0.33375035003910 
C16   C     0.01910617991284 0.74935271938044 0.16625466001209 
C17   C     0.71401071053729 0.31319036012071 0.34075598003795 
C18   C     0.28593783016466 0.81321134974339 0.15924803999999 
C19   C     0.22675508956562 0.30383276951303 0.45429534001446 
C20   C     0.77319024953878 0.80379651037066 0.04570766004883 
C21   C     0.09883745044617 0.21979908011830 0.46450942992073 
C22   C     0.90111119042052 0.71976259959410 0.03549081007791 
C23   C     0.83765985040510 0.12642532035389 0.45553535000095 
C24   C     0.16228208989731 0.62638806954639 0.04446247008376 
C25   C     0.71114223988638 0.13267195974210 0.43713855004687 
C26   C     0.28879594008477 0.63263257957329 0.06285990993546 
C27   C     0.96993014031301 0.30953461035646 0.30112607007607 
C28   C     0.03004078033673 0.80953107959613 0.19888296008272 
C29   C     0.57812789021338 0.21772702009688 0.38792495006113 
C30   C     0.42181311962467 0.71773855057953 0.11207404999584 
C31   C     0.11052989014268 0.15257987960633 0.34193607997736 
C32   C     0.88941195986009 0.65259882026853 0.15806604991381 
C33   C     0.57735911010796 0.28652153004646 0.35760328000039 
C34   C     0.42258538001267 0.78654877039333 0.14239788000512 
C35   C     0.70874104011238 0.37923998961723 0.30862859003582 
C36   C     0.29122194981678 0.87925708060430 0.19137942009993 
C37   C     0.83410588966528 0.38611639990566 0.28989266001482 
C38   C     0.16586935012226 0.88610790053996 0.21011899011252 
C39   C     0.22503553965161 0.12365544990460 0.32013905993034 
C40   C     0.77491311988966 0.62369020011603 0.17986318000917 
C41   C     0.09022682020680 0.28178733947166 0.27943432999193 
C42   C     0.90975811017821 0.78178478006558 0.22057612988705 
C43   C     0.21657397969075 0.19131372997510 0.28865895009093 
C44   C     0.78339975043222 0.69132670054832 0.21134871996360 
