data_stdin
_audit_creation_method 'critic2'
_audit_creation_date 2023-8-11
_chemical_formula_sum 'C22 H14'
_cell_formula_units_Z 4
_cell_length_a        12.1104254645
_cell_length_b        12.4051656900
_cell_length_c        10.4046424639
_cell_angle_alpha        90.0000
_cell_angle_beta        64.8349
_cell_angle_gamma        90.0000
_cell_volume          1414.748448
_space_group_crystal_system monoclinic
_space_group_IT_number 14
_space_group_name_H-M_alt 'P2_1/c'
_space_group_name_Hall '-P 2ybc'
loop_
_symmetry_equiv_pos_site_id
_symmetry_equiv_pos_as_xyz
 1 'x,y,z'
 2 '-x,-y,-z'
 3 '-x,-1/2+y,-1/2-z'
 4 'x,-1/2-y,-1/2+z'
loop_
_atom_site_label
_atom_site_type_symbol
_atom_site_fract_x
_atom_site_fract_y
_atom_site_fract_z
H1    H     0.43441527008055 0.48923065981269 0.13514315029571 
H2    H     0.63270203968985 0.40907911982184 0.98265693013596 
H3    H     0.73386482943616 0.28094249992209 0.08344244050928 
H4    H     0.64701630014333 0.25434812033388 0.34422479040307 
H5    H     0.50582647055643 0.31098756996629 0.58199621950811 
H6    H     0.33790656013178 0.43039796995802 0.73531406015458 
H7    H     0.17964481013433 0.55779374979558 0.76773368045683 
H8    H     0.29005010991077 0.31710791036605 0.22994956949884 
H9    H     0.05801195995222 0.66512894971437 0.67356913997403 
H10   H     0.99755978997620 0.70747874014832 0.48818164020763 
H11   H     0.99803333036511 0.66884785984345 0.25507337991368 
H12   H     0.25217135977953 0.25856936037320 0.02855289007418 
H13   H     0.05470898035352 0.55193084003183 0.05049762963140 
H14   H     0.14239439011274 0.37893067011402 0.92830842050352 
C1    C     0.47803998034037 0.43509018009123 0.18132965981517 
C2    C     0.42126781006806 0.41529928019663 0.32944676993257 
C3    C     0.30610439972453 0.46447883024904 0.42362540009747 
C4    C     0.21709209014147 0.50821715029066 0.37940115016854 
C5    C     0.58941254988920 0.38981905992739 0.09531226952961 
C6    C     0.48891668028034 0.35453750992060 0.38881547012232 
C7    C     0.28451363025263 0.47654560022493 0.56865952038838 
C8    C     0.19869197005219 0.47164132017285 0.25694823026437 
C9    C     0.13426047003132 0.58743553996924 0.46763319028623 
C10   C     0.64829263974393 0.31943015978775 0.15245459002751 
C11   C     0.59875305035467 0.30293470966423 0.29735050005762 
C12   C     0.45209575002107 0.35561608961333 0.53859658987616 
C13   C     0.35793907019726 0.41999274996513 0.62358126966394 
C14   C     0.12392724051706 0.53414014990144 0.20906811966939 
C15   C     0.19211769018728 0.54785758032670 0.65848260049615 
C16   C     0.24067322028481 0.37056282971579 0.19013700034280 
C17   C     0.12477770028368 0.60684128976465 0.60651126975526 
C18   C     0.05739509982505 0.64560274998337 0.41915405027510 
C19   C     0.05717204995844 0.62399913998121 0.29074685974055 
C20   C     0.21930583989549 0.33715786014281 0.07585423966471 
C21   C     0.10831030975607 0.50078117970896 0.08769141004465 
C22   C     0.15569719992916 0.40430197973924 0.02100627967354 
