data_stdin
_audit_creation_method 'critic2'
_audit_creation_date 2023-8-11
_chemical_formula_sum 'C22 H14'
_cell_formula_units_Z 8
_cell_length_a        32.0888445903
_cell_length_b        10.0659734810
_cell_length_c         9.0653738885
_cell_angle_alpha        89.9992
_cell_angle_beta       104.7809
_cell_angle_gamma        89.9993
_cell_volume          2831.268371
_space_group_crystal_system monoclinic
_space_group_IT_number 15
_space_group_name_H-M_alt 'C2/c'
_space_group_name_Hall '-C 2yc'
loop_
_symmetry_equiv_pos_site_id
_symmetry_equiv_pos_as_xyz
 1 'x,y,z'
 2 '-1/2-x,-1/2-y,-z'
 3 '-1/2-x,-1/2+y,-1/2-z'
 4 'x,-y,-1/2+z'
 5 '-1/2+x,-1/2+y,z'
 6 '-x,-y,-z'
 7 '-x,y,-1/2-z'
 8 '-1/2+x,-1/2-y,-1/2+z'
loop_
_atom_site_label
_atom_site_type_symbol
_atom_site_fract_x
_atom_site_fract_y
_atom_site_fract_z
H1    H     0.17869652014526 0.15163606017416 0.63745416016902 
H2    H     0.25695952008603 0.17603911017437 0.68845998969835 
H3    H     0.29587741996229 0.34590982999227 0.87288827967758 
H4    H     0.25435930007094 0.49295215951557 0.00463509971948 
H5    H     0.18722619008317 0.57427917966521 0.03984855996828 
H6    H     0.10791736997822 0.59283300040505 0.94115526023539 
H7    H     0.04304594011532 0.53391835001878 0.75640848021727 
H8    H     0.15670398002159 0.06516427969804 0.87392324007080 
H9    H     0.00277964012120 0.38763798029756 0.54525722047610 
H10   H     0.99966338991969 0.19299272955322 0.38728101007227 
H11   H     0.02696872984222 0.96807160037718 0.34883757959750 
H12   H     0.16977061996186 0.82422081039811 0.87599696043702 
H13   H     0.07112116000563 0.78113343956513 0.45745950037641 
H14   H     0.12887103988051 0.68115613951800 0.66341117016673 
C1    C     0.19484134987284 0.22588918034977 0.71908180008089 
C2    C     0.16999858994787 0.30818852999312 0.79126509027857 
C3    C     0.12310441016395 0.30688862017852 0.75207661028512 
C4    C     0.09627716005747 0.20551590963516 0.66193676041234 
C5    C     0.23902849996111 0.24052599959073 0.74669167033456 
C6    C     0.19263880004189 0.40840781015813 0.89284132962319 
C7    C     0.10213858988809 0.42069818982868 0.79357667056112 
C8    C     0.10710545984068 0.06543646986882 0.66122486949983 
C9    C     0.05435614990868 0.24335480964487 0.57503841947493 
C10   C     0.26106990005390 0.33678433980983 0.85049393033597 
C11   C     0.23805716989370 0.41826286993542 0.92303214035027 
C12   C     0.16934447991474 0.50401267031822 0.95603321958683 
C13   C     0.12565109001124 0.51309309023622 0.90313940024580 
C14   C     0.08144587000392 0.98065354970866 0.54664166046096 
C15   C     0.05791828006740 0.44553567025558 0.72250881003998 
C16   C     0.13872357996876 0.00439207009241 0.78005749008874 
C17   C     0.03573227014044 0.36459380023843 0.60778350024945 
C18   C     0.03038632018854 0.15771175019218 0.45821866054125 
C19   C     0.04486751005943 0.03319328018207 0.43861992991349 
C20   C     0.14591030987686 0.86888811996451 0.78160271034110 
C21   C     0.09050928993387 0.84302307012521 0.54783285045914 
C22   C     0.12240148016602 0.78729800007169 0.66287392043446 
