data_stdin
_audit_creation_method 'critic2'
_audit_creation_date 2023-8-11
_chemical_formula_sum 'C22 H14'
_cell_formula_units_Z 4
_cell_length_a        17.4140243401
_cell_length_b         8.0945616300
_cell_length_c        10.5007549617
_cell_angle_alpha        90.0000
_cell_angle_beta        89.9988
_cell_angle_gamma        90.0000
_cell_volume          1480.174797
_space_group_crystal_system orthorhombic
_space_group_IT_number 18
_space_group_name_H-M_alt 'P2_12_12'
_space_group_name_Hall 'P 2 2ab'
loop_
_symmetry_equiv_pos_site_id
_symmetry_equiv_pos_as_xyz
 1 'x,y,z'
 2 '-x,-y,z'
 3 '-1/2-x,-1/2+y,-z'
 4 '-1/2+x,-1/2-y,-z'
loop_
_atom_site_label
_atom_site_type_symbol
_atom_site_fract_x
_atom_site_fract_y
_atom_site_fract_z
H1    H     0.30442286989701 0.91077279031514 0.93625121962814 
H2    H     0.34343642022687 0.88433915057892 0.15858877958232 
H3    H     0.25794466002058 0.74078943956344 0.31587812983904 
H4    H     0.12815350027932 0.65173442939349 0.24851503957478 
H5    H     0.02720304002081 0.63681080004208 0.08937599987320 
H6    H     0.97967703989383 0.70305976950426 0.87337498984138 
H7    H     0.99822463016157 0.81952584046049 0.66641936995097 
H8    H     0.30319140980202 0.60939816000066 0.86470500016662 
H9    H     0.08274435000997 0.95003065954518 0.50322669027985 
H10   H     0.20719601992903 0.02804809020980 0.42944476034964 
H11   H     0.34883553015543 0.01180688034573 0.44154953982401 
H12   H     0.43872790981685 0.54290594001399 0.84823008041793 
H13   H     0.46174297012511 0.87450490034184 0.52951977956885 
H14   H     0.52151370024200 0.68047635967439 0.68346218033801 
C1    C     0.26659016994146 0.84778628008863 0.00227458964005 
C2    C     0.19529092986798 0.78598563963873 0.95809263956993 
C3    C     0.17095328002955 0.79595149021896 0.82582763991774 
C4    C     0.22100379015249 0.83080202977502 0.71916289033865 
C5    C     0.28858852027587 0.83282460961617 0.12824864027617 
C6    C     0.14315449975557 0.72320907962484 0.05190035965707 
C7    C     0.09075464979032 0.77991795001786 0.80093110961527 
C8    C     0.30245237021267 0.79137822980531 0.71310401014423 
C9    C     0.18749700976706 0.89950235981919 0.60725899957121 
C10   C     0.23996102028148 0.75577985004897 0.21746071034209 
C11   C     0.16773924002845 0.70549513050958 0.17975557025642 
C12   C     0.06599829023613 0.68509313023789 0.01707890972427 
C13   C     0.04005153975168 0.71996686987079 0.89738107982811 
C14   C     0.34843515974848 0.85917092029266 0.61255041998602 
C15   C     0.05999839020674 0.82896315000402 0.68117961971272 
C16   C     0.33758480004060 0.67359582022286 0.79419525037706 
C17   C     0.10642136001558 0.89866303984481 0.59076755012526 
C18   C     0.23500445020316 0.96714871019763 0.50949617978107 
C19   C     0.31313317992634 0.95587633002510 0.51517349038543 
C20   C     0.41456538974466 0.63446070026456 0.78374603043441 
C21   C     0.42763474019263 0.82014733958171 0.60578139988138 
C22   C     0.46074964001208 0.71081856019680 0.69054206000365 
