data_stdin
_audit_creation_method 'critic2'
_audit_creation_date 2023-8-11
_chemical_formula_sum 'C22 H14'
_cell_formula_units_Z 2
_cell_length_a         5.9030205221
_cell_length_b         9.6089274776
_cell_length_c        13.9282316588
_cell_angle_alpha       116.2034
_cell_angle_beta        90.3746
_cell_angle_gamma        92.5219
_cell_volume           707.859060
_space_group_crystal_system triclinic
_space_group_IT_number 2
_space_group_name_H-M_alt 'P-1'
_space_group_name_Hall '-P 1'
loop_
_symmetry_equiv_pos_site_id
_symmetry_equiv_pos_as_xyz
 1 'x,y,z'
 2 '-x,-y,-z'
loop_
_atom_site_label
_atom_site_type_symbol
_atom_site_fract_x
_atom_site_fract_y
_atom_site_fract_z
H1    H     0.53529403956828 0.24593952940821 0.09789743978296 
H2    H     0.61146224075205 0.02101637010295 0.92861346968820 
H3    H     0.98782484042480 0.99959154989783 0.84613005986322 
H4    H     0.27677528910931 0.22026053019101 0.92616759961748 
H5    H     0.38211846013828 0.48531972972376 0.05648910963774 
H6    H     0.26786179913018 0.73408294943438 0.19994831986805 
H7    H     0.99398971040701 0.88573409944617 0.32836712960274 
H8    H     0.84235662985973 0.22551845980990 0.23454283987548 
H9    H     0.63675537989757 0.90226906009170 0.42501111022310 
H10   H     0.30925929958359 0.77697978948268 0.46447633993349 
H11   H     0.10085595031550 0.54115833985162 0.45258695006416 
H12   H     0.68171678057745 0.00462150004844 0.26124177993895 
H13   H     0.10607638941184 0.26621726009698 0.41284547033343 
H14   H     0.30592206982829 0.01998847003060 0.34428376006936 
C1    C     0.70091280028522 0.23896219004751 0.06297391020330 
C2    C     0.86686518996401 0.36163211000887 0.11485686971311 
C3    C     0.82677043035326 0.49771191999354 0.21418507968535 
C4    C     0.65362537919351 0.50477458951685 0.28856625988729 
C5    C     0.74331943025517 0.11234348974575 0.96762997005852 
C6    C     0.07297219079567 0.35683996999960 0.06018906029417 
C7    C     0.96084051992681 0.63569292996156 0.23582780022885 
C8    C     0.56170122019174 0.37206178950190 0.30222822997295 
C9    C     0.57462214013425 0.65269495038167 0.35838901997853 
C10   C     0.95553320941687 0.10152773008178 0.91995026016330 
C11   C     0.11635198951663 0.22288059982142 0.96503515031829 
C12   C     0.22383483917170 0.49143073996558 0.09748208990544 
C13   C     0.16234864998566 0.62811055979201 0.17795425026408 
C14   C     0.35721739041711 0.38543579946623 0.35965272989928 
C15   C     0.89253532963588 0.78098047999991 0.31501437965207 
C16   C     0.67771792055231 0.23332717943210 0.27038810967508 
C17   C     0.69704791049230 0.79003384960924 0.36949173004529 
C18   C     0.37333804048802 0.66267576972651 0.41680518993418 
C19   C     0.26008211061816 0.53289438989743 0.41201716002640 
C20   C     0.58799466000649 0.10947226024386 0.28562787011518 
C21   C     0.26405985929605 0.25504219988410 0.37067703982224 
C22   C     0.37610825039613 0.11859327971815 0.33342041027315 
