data_stdin
_audit_creation_method 'critic2'
_audit_creation_date 2023-8-11
_chemical_formula_sum 'C22 H14'
_cell_formula_units_Z 8
_cell_length_a        27.1518353503
_cell_length_b         5.5618929072
_cell_length_c        20.2060108635
_cell_angle_alpha        89.9989
_cell_angle_beta        72.7305
_cell_angle_gamma        89.9988
_cell_volume          2913.861996
_space_group_crystal_system monoclinic
_space_group_IT_number 15
_space_group_name_H-M_alt 'C2/c'
_space_group_name_Hall '-C 2yc'
loop_
_symmetry_equiv_pos_site_id
_symmetry_equiv_pos_as_xyz
 1 'x,y,z'
 2 '-1/2-x,-1/2-y,-z'
 3 '-1/2-x,-1/2+y,-1/2-z'
 4 'x,-y,-1/2+z'
 5 '-1/2+x,-1/2+y,z'
 6 '-x,-y,-z'
 7 '-x,y,-1/2-z'
 8 '-1/2+x,-1/2-y,-1/2+z'
loop_
_atom_site_label
_atom_site_type_symbol
_atom_site_fract_x
_atom_site_fract_y
_atom_site_fract_z
H1    H     0.29983743984036 0.15182547046876 0.06895416023298 
H2    H     0.21919680984295 0.31777153955392 0.05712688987860 
H3    H     0.18619306006306 0.71302921995321 0.10986624009326 
H4    H     0.23112832013683 0.92084637962711 0.18466156011022 
H5    H     0.29717907015024 0.92531624026757 0.24380214980303 
H6    H     0.36756617000999 0.71659934968515 0.27429971990395 
H7    H     0.42812447010518 0.38928520025713 0.25997533014117 
H8    H     0.36596116005227 0.48270624933104 0.00328977016046 
H9    H     0.46845338989622 0.01681227042394 0.19857217000226 
H10   H     0.47978905984067 0.73203828914700 0.10616086010728 
H11   H     0.46947114016380 0.61623589976853 0.99238368977525 
H12   H     0.37364474997128 0.41160615031110 0.88152149011946 
H13   H     0.44665455994372 0.72939940033413 0.89011140022162 
H14   H     0.41091479015649 0.02500246959083 0.82411374976387 
C1    C     0.28634687006932 0.32510732989597 0.09209836016546 
C2    C     0.31515951005224 0.44800372057740 0.12968375009959 
C3    C     0.36341241011370 0.35708107972010 0.13721819001054 
C4    C     0.39587294994196 0.18068592981392 0.09241763018694 
C5    C     0.24079378992072 0.41811452964471 0.08553283990445 
C6    C     0.29269694984700 0.66027432919230 0.16659287021756 
C7    C     0.37832583009288 0.44246652961494 0.19495204022260 
C8    C     0.39874265984753 0.14126862953735 0.02021406020908 
C9    C     0.43052497007773 0.04571041005794 0.11872382013154 
C10   C     0.22165988007566 0.63976811002469 0.11637847996974 
C11   C     0.24688063005277 0.75645429941354 0.15723599023886 
C12   C     0.31434793986998 0.76313144917537 0.21633714016173 
C13   C     0.35370554994894 0.64866831047177 0.23256701022009 
C14   C     0.42470592988077 0.93262551963486 0.98520545013720 
C15   C     0.41778481982790 0.32188311968349 0.21517438012587 
C16   C     0.38204147993714 0.31354901962080 0.97984949985798 
C17   C     0.44055914999451 0.11942903934065 0.18087759993541 
C18   C     0.45603138991983 0.83904918999915 0.08231060982163 
C19   C     0.45097165996331 0.77663555061586 0.01942708013137 
C20   C     0.38683456987242 0.27396609054915 0.91068158986662 
C21   C     0.42747575001141 0.89202936970000 0.91499612994230 
C22   C     0.40843965013433 0.05829313965424 0.87811983000381 
