data_stdin
_audit_creation_method 'critic2'
_audit_creation_date 2023-8-11
_chemical_formula_sum 'C22 H14'
_cell_formula_units_Z 8
_cell_length_a        17.5069009401
_cell_length_b        21.1080252500
_cell_length_c         8.0162264313
_cell_angle_alpha        89.9993
_cell_angle_beta        90.0007
_cell_angle_gamma        89.9997
_cell_volume          2962.285108
_space_group_crystal_system orthorhombic
_space_group_IT_number 60
_space_group_name_H-M_alt 'Pbcn'
_space_group_name_Hall '-P 2n 2ab'
loop_
_symmetry_equiv_pos_site_id
_symmetry_equiv_pos_as_xyz
 1 'x,y,z'
 2 '-x,-y,-z'
 3 '-1/2-x,-1/2-y,-1/2+z'
 4 '-1/2+x,-1/2+y,-1/2-z'
 5 '-1/2+x,-1/2-y,-z'
 6 '-1/2-x,-1/2+y,z'
 7 '-x,y,-1/2-z'
 8 'x,-y,-1/2+z'
loop_
_atom_site_label
_atom_site_type_symbol
_atom_site_fract_x
_atom_site_fract_y
_atom_site_fract_z
H1    H     0.79974315014990 0.21683439996098 0.84113232999350 
H2    H     0.83947635993892 0.32696891994510 0.87237961993620 
H3    H     0.75439985979947 0.40520470009491 0.01821988979461 
H4    H     0.62469551985870 0.37202654012250 0.10390538042690 
H5    H     0.52356601986207 0.29346709004423 0.11358637984502 
H6    H     0.47631111006925 0.18594579990254 0.04799170990700 
H7    H     0.49508322015942 0.08201045006244 0.93809701977425 
H8    H     0.79961305002844 0.18163499993296 0.14448032978181 
H9    H     0.57895854016839 0.00008135980801 0.80978423955411 
H10   H     0.70292741989037 0.96340943000080 0.72803563965831 
H11   H     0.84368397026972 0.96982374019794 0.74406905998365 
H12   H     0.93543192001774 0.17506925012182 0.20390665959823 
H13   H     0.95656354976699 0.01657638019552 0.86810294957885 
H14   H     0.01746797004359 0.09437478010185 0.05966834023542 
C1    C     0.76224113026442 0.24953915010009 0.90559411027158 
C2    C     0.69113694009451 0.22757823998949 0.96706314986779 
C3    C     0.66682090026040 0.16175421012814 0.95731436965243 
C4    C     0.71663589013182 0.10860129992435 0.92313860983032 
C5    C     0.78460422002786 0.31201048976642 0.92308189039011 
C6    C     0.63930600974245 0.27434392998133 0.03007048022621 
C7    C     0.58700691027252 0.14943704008752 0.97366051965712 
C8    C     0.79785919987249 0.10601902982809 0.96133017031063 
C9    C     0.68323909020934 0.05252070013032 0.85565954983005 
C10   C     0.73632594981388 0.35636203002797 0.00128132952409 
C11   C     0.66408442990230 0.33779603007052 0.04976093975719 
C12   C     0.56227745007638 0.25730965982223 0.06640457030385 
C13   C     0.53644817010099 0.19773598006015 0.03175659045026 
C14   C     0.84347292998494 0.05623833006740 0.89180658940362 
C15   C     0.55645910991764 0.08949479010565 0.92723231059952 
C16   C     0.83354610988286 0.14682847993089 0.07809225036121 
C17   C     0.60261935998128 0.04414954022889 0.85851966014715 
C18   C     0.73046828977569 0.00362161993456 0.78844753032711 
C19   C     0.80819737002291 0.00686933005339 0.79804707048528 
C20   C     0.91070587007280 0.14265154019722 0.11309979039121 
C21   C     0.92286242026051 0.05404616008251 0.92562414028128 
C22   C     0.95652560010166 0.09688252995296 0.03317830982114 
