data_stdin
_audit_creation_method 'critic2'
_audit_creation_date 2023-8-11
_chemical_formula_sum 'C22 H14'
_cell_formula_units_Z 4
_cell_length_a         9.9544525637
_cell_length_b         8.3153800701
_cell_length_c        17.7359521829
_cell_angle_alpha        89.9997
_cell_angle_beta        77.0909
_cell_angle_gamma        89.9999
_cell_volume          1430.989705
_space_group_crystal_system monoclinic
_space_group_IT_number 14
_space_group_name_H-M_alt 'P2_1/c'
_space_group_name_Hall '-P 2ybc'
loop_
_symmetry_equiv_pos_site_id
_symmetry_equiv_pos_as_xyz
 1 'x,y,z'
 2 '-x,-y,-z'
 3 '-x,-1/2+y,-1/2-z'
 4 'x,-1/2-y,-1/2+z'
loop_
_atom_site_label
_atom_site_type_symbol
_atom_site_fract_x
_atom_site_fract_y
_atom_site_fract_z
H1    H     0.02589119971025 0.17099231033009 0.31688687975638 
H2    H     0.77655574044597 0.13077801940293 0.33309004974178 
H3    H     0.68375949997089 0.99417246997673 0.23031990975492 
H4    H     0.84260685997055 0.91827919043878 0.10692787026335 
H5    H     0.07283334018441 0.91960125042193 0.02221330980855 
H6    H     0.31286761010748 0.01862211041506 0.99517141021797 
H7    H     0.49907966961279 0.15445737053300 0.03617831992896 
H8    H     0.11199201955198 0.87609233010314 0.31132459021985 
H9    H     0.60100919015928 0.26971936950494 0.13967191984669 
H10   H     0.59487992987530 0.31301457971734 0.27379121977137 
H11   H     0.49745578044620 0.25607453005493 0.41183472009027 
H12   H     0.04311225025973 0.78474133969789 0.44437497002527 
H13   H     0.33903907014175 0.10193343995231 0.51027969001115 
H14   H     0.15096768974913 0.90174929983991 0.54700164995556 
C1    C     0.98731925019819 0.11056104984563 0.27178352017889 
C2    C     0.08209350979020 0.06010473045198 0.20395686003121 
C3    C     0.23016905025107 0.08263562012505 0.19222743020282 
C4    C     0.30309328982536 0.11143195002032 0.25287951987913 
C5    C     0.84700609978122 0.08825653050973 0.28078444989024 
C6    C     0.02637141978447 0.99741513033751 0.14221004012888 
C7    C     0.30771922048329 0.08477077021608 0.11421544000824 
C8    C     0.25899093008393 0.05437674961940 0.33219914003359 
C9    C     0.43337150955861 0.19022779056644 0.23251985008256 
C10   C     0.79396440028651 0.01365377058662 0.22232576002031 
C11   C     0.88263997031637 0.97072454996362 0.15379883974166 
C12   C     0.11515828995850 0.97208170029162 0.06808557027106 
C13   C     0.24861945968788 0.02389448978865 0.05357565973918 
C14   C     0.32877769015372 0.11030953028332 0.38972858024199 
C15   C     0.44338182979133 0.14952269053089 0.09643539026845 
C16   C     0.15909136945384 0.93162798997391 0.35442411020258 
C17   C     0.50064134946396 0.21130320996650 0.15351647015394 
C18   C     0.49972965009707 0.24487175960315 0.29137155004872 
C19   C     0.44616564981715 0.21248999978820 0.36758492027888 
C20   C     0.12152655045000 0.87776757959784 0.42993036975221 
C21   C     0.28649833019636 0.05549066002615 0.46710152027580 
C22   C     0.18311012968270 0.94249321978473 0.48739726027851 
