data_stdin
_audit_creation_method 'critic2'
_audit_creation_date 2023-8-11
_chemical_formula_sum 'C22 H14'
_cell_formula_units_Z 2
_cell_length_a         9.5865151736
_cell_length_b         7.4826801031
_cell_length_c        10.9437389699
_cell_angle_alpha        81.9141
_cell_angle_beta        64.8153
_cell_angle_gamma        77.8505
_cell_volume           693.330153
_space_group_crystal_system triclinic
_space_group_IT_number 2
_space_group_name_H-M_alt 'P-1'
_space_group_name_Hall '-P 1'
loop_
_symmetry_equiv_pos_site_id
_symmetry_equiv_pos_as_xyz
 1 'x,y,z'
 2 '-x,-y,-z'
loop_
_atom_site_label
_atom_site_type_symbol
_atom_site_fract_x
_atom_site_fract_y
_atom_site_fract_z
H1    H     0.84893386031752 0.73542286049540 0.32224687981442 
H2    H     0.75901342944265 0.04587034992401 0.40377446044632 
H3    H     0.53614773971922 0.24810543051675 0.36973162045459 
H4    H     0.41363627975968 0.14288909983006 0.23935390007020 
H5    H     0.40991524006420 0.91904438944879 0.09969973014330 
H6    H     0.54202672040734 0.64210882963731 0.97110644982668 
H7    H     0.74633612030570 0.38144895021668 0.90855829035747 
H8    H     0.62202423967480 0.55690624974251 0.46096079988251 
H9    H     0.97715051053577 0.18145947994906 0.93344369971423 
H10   H     0.13800379051927 0.08170872969867 0.05595833980041 
H11   H     0.18108416013229 0.07071567014943 0.26577159996262 
H12   H     0.63757531977775 0.49193982952421 0.68161526989139 
H13   H     0.08591707989767 0.15088287949317 0.49707664961335 
H14   H     0.87652275970693 0.30067499069126 0.69937185984596 
C1    C     0.75077431975974 0.82110987032220 0.30659722993589 
C2    C     0.67904893987920 0.75197182046727 0.23760000051093 
C3    C     0.73419881009880 0.57205786983851 0.18211601978744 
C4    C     0.83909844006879 0.42678477975309 0.21719964964882 
C5    C     0.70059148965685 0.99579103979295 0.35254465977394 
C6    C     0.55880917966757 0.87536601069453 0.20919294991619 
C7    C     0.69384668984104 0.54433608043904 0.07584730014363 
C8    C     0.84751288033967 0.39720895984407 0.34815086989980 
C9    C     0.93496109005221 0.29577367954135 0.11952967004201 
C10   C     0.57523113975050 0.11146140940794 0.33215009998125 
C11   C     0.50647685054354 0.05207648945581 0.26081185012752 
C12   C     0.50237283004057 0.82525803948401 0.11962622026729 
C13   C     0.57402278036027 0.67048110957456 0.04985845033125 
C14   C     0.97525681016924 0.27145644030482 0.36269853981370 
C15   C     0.77813324033631 0.39631273027375 0.99054419995407 
C16   C     0.72571039983325 0.47165332031794 0.46744733989125 
C17   C     0.90309292978718 0.28457593014516 0.00552405030714 
C18   C     0.06078908048297 0.17114454001945 0.13739024975829 
C19   C     0.08488176976456 0.16527016057645 0.25225601050855 
C20   C     0.73478373041324 0.43606228938900 0.59145977004531 
C21   C     0.98527230012575 0.24327049984521 0.48964500043699 
C22   C     0.86791874993788 0.32512173965113 0.60224302006529 
