data_stdin
_audit_creation_method 'critic2'
_audit_creation_date 2023-8-11
_chemical_formula_sum 'C22 H14'
_cell_formula_units_Z 4
_cell_length_a        14.9983981051
_cell_length_b         4.7204151995
_cell_length_c        20.1427729256
_cell_angle_alpha        89.9987
_cell_angle_beta        86.0261
_cell_angle_gamma        89.9990
_cell_volume          1422.652820
_space_group_crystal_system monoclinic
_space_group_IT_number 14
_space_group_name_H-M_alt 'P2_1/c'
_space_group_name_Hall '-P 2ybc'
loop_
_symmetry_equiv_pos_site_id
_symmetry_equiv_pos_as_xyz
 1 'x,y,z'
 2 '-x,-y,-z'
 3 '-x,-1/2+y,-1/2-z'
 4 'x,-1/2-y,-1/2+z'
loop_
_atom_site_label
_atom_site_type_symbol
_atom_site_fract_x
_atom_site_fract_y
_atom_site_fract_z
H1    H     0.36422351987287 0.88614166057962 0.79975845013214 
H2    H     0.52642697012596 0.83475187097732 0.78818152000059 
H3    H     0.60286811970455 0.47378226901795 0.85614141008566 
H4    H     0.51335556972836 0.19415482080917 0.94091383983049 
H5    H     0.37119615013022 0.07679397103275 0.00005018986515 
H6    H     0.21244077034684 0.20150295943683 0.02803007980795 
H7    H     0.08630269990014 0.51309997057994 0.01451857990918 
H8    H     0.30097915966535 0.40047753014373 0.75942698023735 
H9    H     0.01266234986352 0.88838526034426 0.95079981023523 
H10   H     0.00690381998398 0.17944575074126 0.85234510001697 
H11   H     0.05224904993290 0.26020286995941 0.73349257010530 
H12   H     0.32005208028082 0.40736290945018 0.63773947986048 
H13   H     0.13026782983713 0.09018838969456 0.63215343008372 
H14   H     0.23822590010647 0.76161385999048 0.57246438016190 
C1    C     0.39567760984434 0.72693696957093 0.82926135980571 
C2    C     0.34195108994220 0.55921979056150 0.87465170017188 
C3    C     0.24571921027166 0.59320542939936 0.88447201018798 
C4    C     0.19112827970154 0.74245253084809 0.83962840017164 
C5    C     0.48758263990481 0.69877589077118 0.82298113993028 
C6    C     0.38682551021321 0.37199889042737 0.91729828020310 
C7    C     0.20335538033711 0.48995297914610 0.94506453995589 
C8    C     0.20776152990119 0.75117205054495 0.76778361995485 
C9    C     0.11085135015910 0.87019700915507 0.86694757997698 
C10   C     0.53070004983458 0.50045731930511 0.86209808990664 
C11   C     0.48084862012052 0.34230716014997 0.90885534995202 
C12   C     0.33689655007342 0.22877385970869 0.97005699019203 
C13   C     0.24923420005673 0.29528448102465 0.98497993020612 
C14   C     0.15596192999457 0.93780147936349 0.72980804017930 
C15   C     0.11678138029392 0.58973219063670 0.96722239001900 
C16   C     0.26571441983069 0.55865860089483 0.73216234021827 
C17   C     0.07549398004246 0.79296154907672 0.93176356016192 
C18   C     0.06373269992933 0.06641538955218 0.82833014011774 
C19   C     0.08804161973331 0.10901495044811 0.76254483018103 
C20   C     0.27591156974071 0.56086288955788 0.66347829003342 
C21   C     0.16920141030382 0.94058020939792 0.65953859021536 
C22   C     0.22857579989430 0.75681871093337 0.62651587019031 
