data_stdin
_audit_creation_method 'critic2'
_audit_creation_date 2023-8-11
_chemical_formula_sum 'C22 H14'
_cell_formula_units_Z 4
_cell_length_a        10.0050295224
_cell_length_b         8.1682419723
_cell_length_c        17.8295723201
_cell_angle_alpha        90.0044
_cell_angle_beta        89.9986
_cell_angle_gamma        90.0000
_cell_volume          1457.095086
_space_group_crystal_system orthorhombic
_space_group_IT_number 19
_space_group_name_H-M_alt 'P2_12_12_1'
_space_group_name_Hall 'P 2ac 2ab'
loop_
_symmetry_equiv_pos_site_id
_symmetry_equiv_pos_as_xyz
 1 'x,y,z'
 2 '-1/2-x,-y,-1/2+z'
 3 '-x,-1/2+y,-1/2-z'
 4 '-1/2+x,-1/2-y,-z'
loop_
_atom_site_label
_atom_site_type_symbol
_atom_site_fract_x
_atom_site_fract_y
_atom_site_fract_z
H1    H     0.54922294972196 0.43039077973103 0.82638445020652 
H2    H     0.30682136038222 0.40036292057419 0.83779807014473 
H3    H     0.17395075982387 0.27515586994579 0.73412844989718 
H4    H     0.28584348028175 0.20149602952433 0.61521205994172 
H5    H     0.48523857992206 0.20199809018210 0.53508833977383 
H6    H     0.71599266045029 0.29852854975276 0.51334548026551 
H7    H     0.91294269009785 0.44510129944101 0.55705094990516 
H8    H     0.63846453043114 0.12725922054266 0.81579086994755 
H9    H     0.05094888040907 0.55469085948496 0.66071088979889 
H10   H     0.09132247047773 0.59324313046839 0.79272462022323 
H11   H     0.03788814951003 0.53577774965453 0.92554578024471 
H12   H     0.62074866984231 0.02443135951888 0.94354185009729 
H13   H     0.91665295954378 0.36989721978286 0.01781559021487 
H14   H     0.75107426998234 0.15467276945197 0.04779943976140 
C1    C     0.49371176970661 0.37526562987007 0.78068356000089 
C2    C     0.56237737969584 0.32786531981463 0.71472738980813 
C3    C     0.70545753999662 0.35081534989770 0.70497415983731 
C4    C     0.79946657010971 0.37790690009133 0.76515261993067 
C5    C     0.35680205001990 0.35808033943944 0.78717228027422 
C6    C     0.48348029049495 0.27144779943146 0.65289453985823 
C7    C     0.75401739007635 0.35949442963657 0.62992063025597 
C8    C     0.78360401010598 0.31669687942262 0.84127208985451 
C9    C     0.92045632037984 0.46214645947045 0.74818174012712 
C10   C     0.28130204959360 0.29027870985551 0.72829730988908 
C11   C     0.34416357038545 0.24861994958991 0.66210985984682 
C12   C     0.54482746952213 0.24986117032279 0.58127645020882 
C13   C     0.67313155981272 0.30090653940895 0.56952057980165 
C14   C     0.86921060036246 0.37736199986069 0.89944282027403 
C15   C     0.88106538990659 0.43055900004303 0.61507283993240 
C16   C     0.69659266000242 0.18582873000019 0.85965898990476 
C17   C     0.95796825021474 0.49035253984900 0.67232618026924 
C18   C     0.00436782010525 0.51978513008008 0.80747016990099 
C19   C     0.97559009023322 0.48662632041837 0.88076845976221 
C20   C     0.68666799980605 0.12745002986185 0.93221920999773 
C21   C     0.85318873965714 0.31984349961383 0.97388016984309 
C22   C     0.76210025959979 0.19814975951185 0.99045128972504 
