data_stdin
_audit_creation_method 'critic2'
_audit_creation_date 2023-8-11
_chemical_formula_sum 'C22 H14'
_cell_formula_units_Z 4
_cell_length_a        10.1936409822
_cell_length_b         4.5736857654
_cell_length_c        30.9011058200
_cell_angle_alpha        90.0155
_cell_angle_beta        82.9842
_cell_angle_gamma        89.9965
_cell_volume          1429.899851
_space_group_crystal_system triclinic
_space_group_IT_number 2
_space_group_name_H-M_alt 'P-1'
_space_group_name_Hall '-P 1'
loop_
_symmetry_equiv_pos_site_id
_symmetry_equiv_pos_as_xyz
 1 'x,y,z'
 2 '-x,-y,-z'
loop_
_atom_site_label
_atom_site_type_symbol
_atom_site_fract_x
_atom_site_fract_y
_atom_site_fract_z
H1    H     0.87664332984898 0.66531319002696 0.81695902993211 
H2    H     0.12337217032376 0.16526221928205 0.68302941016280 
H3    H     0.93408251017902 0.71756988985366 0.73830770013299 
H4    H     0.06597518959864 0.21745276068081 0.76168914010240 
H5    H     0.81942598985468 0.09048586982954 0.69680027995539 
H6    H     0.18063603991937 0.59031660963606 0.80322726989540 
H7    H     0.63262384984657 0.37499528050621 0.73516335990479 
H8    H     0.36739283042345 0.87487141953158 0.76488304008637 
H9    H     0.48000649975369 0.47489034968671 0.79981359984136 
H10   H     0.51996594981628 0.97483072900623 0.70023631015616 
H11   H     0.39481227009804 0.35428028976909 0.87637198991983 
H12   H     0.60513058976577 0.85428617931813 0.62366180987883 
H13   H     0.40502023955702 0.07660200043380 0.94153912993912 
H14   H     0.59491895966624 0.57665416087254 0.55846933006118 
H15   H     0.94437678032758 0.16326264897125 0.84705752013064 
H16   H     0.05557907997408 0.66322158041599 0.65296937991717 
H17   H     0.51847569047287 0.71608064994345 0.98413871992677 
H18   H     0.48148763991526 0.21610809930267 0.51584208003661 
H19   H     0.70777420955962 0.41566526999659 0.99318472997004 
H20   H     0.29222763953197 0.91557797917970 0.50678526996335 
H21   H     0.94730593972981 0.31470051024220 0.97582682993164 
H22   H     0.05272053010356 0.81448337961966 0.52415040009629 
H23   H     0.18600156043490 0.14230192081351 0.84155981010330 
H24   H     0.81395294994018 0.64223878905855 0.65846591984967 
H25   H     0.16027859988639 0.46986121100738 0.93966872989784 
H26   H     0.83973261014686 0.96960541946338 0.56032674011354 
H27   H     0.29711355969072 0.78860970069213 0.88637828000809 
H28   H     0.70287106985033 0.28844756968241 0.61363048993919 
C1    C     0.82545836037349 0.82801692995481 0.79969476995513 
C2    C     0.17455690005122 0.32794852061156 0.70030751003299 
C3    C     0.72523912007482 0.00027192943139 0.82318314987909 
C4    C     0.27475470960984 0.50021608973226 0.67683178007014 
C5    C     0.68786823044336 0.97308715985741 0.86992632992039 
C6    C     0.31210848960880 0.47305609025444 0.63008489007152 
C7    C     0.76605421978067 0.83002819103878 0.89976148011914 
C8    C     0.23392800998895 0.32997241091118 0.60024114005363 
C9    C     0.85755209001689 0.85674553013243 0.75515245992851 
C10   C     0.14248784000419 0.35663600002866 0.74485403989423 
C11   C     0.65014921031948 0.18776606070480 0.79834959012340 
C12   C     0.34984496995511 0.68769332035488 0.70167986992003 
C13   C     0.56066114036490 0.07940147092472 0.88699450996662 
C14   C     0.43929923960708 0.57939741088338 0.61302104995163 
C15   C     0.90958025983453 0.81642978979795 0.89472955987419 
C16   C     0.09040309003531 0.31632655949345 0.60527748010750 
C17   C     0.69860012035874 0.71353252975055 0.93904996012278 
C18   C     0.30138300972954 0.21348407944571 0.56094095013727 
C19   C     0.79084022995323 0.06100323090456 0.73161770002903 
C20   C     0.20920113040203 0.56087114101420 0.76840554011923 
C21   C     0.68772547999979 0.22091967028236 0.75295117014773 
C22   C     0.31229191028617 0.72080825944047 0.74708291994877 
C23   C     0.53430184014337 0.32867574968334 0.81900457993860 
C24   C     0.46567108006859 0.82862777930276 0.68103369993476 
C25   C     0.48833062977203 0.26471615020440 0.86127225987917 
C26   C     0.51162622984906 0.76470569898616 0.63875738009005 
C27   C     0.97417556952240 0.63013028989141 0.92282043013085 
C28   C     0.02582288951714 0.12995562993907 0.57717905004165 
C29   C     0.50279834012841 0.99360097929800 0.92930780006252 
C30   C     0.49715486983274 0.49362193994604 0.57069731004094 
C31   C     0.99061187980772 0.00347633033465 0.86629641985535 
C32   C     0.00935569015579 0.50339805913707 0.63372214990358 
C33   C     0.56580388023289 0.79696988045814 0.95296052992883 
C34   C     0.43416262019137 0.29697556013200 0.54702996012432 
C35   C     0.76540183970977 0.52141594976284 0.96551408008764 
C36   C     0.23459737046430 0.02130991021201 0.53446756992406 
C37   C     0.89757765975213 0.46834983943644 0.95639138007559 
C38   C     0.10243316995013 0.96817248044062 0.54359466986650 
C39   C     0.12680525997119 0.99379605080499 0.86346502998494 
C40   C     0.87316197979791 0.49369835080603 0.63655383006237 
C41   C     0.11399261009804 0.61934817931769 0.91862716989885 
C42   C     0.88600657001468 0.11913914088977 0.58137508014855 
C43   C     0.18970116962316 0.79618975049702 0.88920123989750 
C44   C     0.81028295972346 0.29603014929179 0.61080872001648 
