data_stdin
_audit_creation_method 'critic2'
_audit_creation_date 2023-8-11
_chemical_formula_sum 'C22 H14'
_cell_formula_units_Z 4
_cell_length_a         7.8161599722
_cell_length_b         8.0200929419
_cell_length_c        22.9035795664
_cell_angle_alpha        90.0013
_cell_angle_beta        83.6704
_cell_angle_gamma        89.9997
_cell_volume          1426.989335
_space_group_crystal_system monoclinic
_space_group_IT_number 14
_space_group_name_H-M_alt 'P2_1/c'
_space_group_name_Hall '-P 2ybc'
loop_
_symmetry_equiv_pos_site_id
_symmetry_equiv_pos_as_xyz
 1 'x,y,z'
 2 '-x,-y,-z'
 3 '-x,-1/2+y,-1/2-z'
 4 'x,-1/2-y,-1/2+z'
loop_
_atom_site_label
_atom_site_type_symbol
_atom_site_fract_x
_atom_site_fract_y
_atom_site_fract_z
H1    H     0.02261040038860 0.58160195037849 0.29739512994793 
H2    H     0.95740639997377 0.81957417974493 0.23723853005365 
H3    H     0.78137586972871 0.05743663036095 0.28201010989736 
H4    H     0.65491096053789 0.03937267031279 0.38613486016147 
H5    H     0.59511631030881 0.88027410939190 0.47710393003183 
H6    H     0.60627247049930 0.61046700961949 0.52929070998074 
H7    H     0.68873885012615 0.32271596947202 0.52980435019245 
H8    H     0.20923540988165 0.70074339057010 0.37224803000947 
H9    H     0.86191818998351 0.08435011035532 0.48543685987426 
H10   H     0.08614343040301 0.97756090948205 0.41621852994861 
H11   H     0.34461173021684 0.02303750032170 0.34462447008499 
H12   H     0.49643276033678 0.74216822949498 0.31916676986532 
H13   H     0.55571068995337 0.21273005036828 0.29719292985070 
H14   H     0.66862802045156 0.50016147950060 0.27805279984484 
C1    C     0.94671228974638 0.68341319005739 0.31772562017009 
C2    C     0.88353800998685 0.67156404948258 0.37795874012635 
C3    C     0.91349656033151 0.52652463940671 0.41342548983502 
C4    C     0.04424444974082 0.40127040013064 0.39823152992395 
C5    C     0.90987641053868 0.81810517944666 0.28374348983837 
C6    C     0.76895811961269 0.80004138039660 0.40167934013710 
C7    C     0.79580762979879 0.49996801022687 0.46456525984723 
C8    C     0.21056471949666 0.43153779961716 0.36471073008066 
C9    C     0.01430312050317 0.23813472959803 0.42171689015670 
C10   C     0.80811774068778 0.95038048978861 0.30876326981145 
C11   C     0.73812305967901 0.94036668953428 0.36667694018897 
C12   C     0.67821427029652 0.77974104031393 0.45876249007071 
C13   C     0.68531702939951 0.63156437987470 0.48774068016205 
C14   C     0.31758604024859 0.29272225963724 0.34535066979476 
C15   C     0.78316154021847 0.34019015048162 0.49168667006091 
C16   C     0.28229423028495 0.59304235058305 0.35497867998337 
C17   C     0.88017606063946 0.21008039977526 0.46788783988274 
C18   C     0.12200771024970 0.10231314058411 0.40056530998387 
C19   C     0.26454187044679 0.12729427060107 0.36155314001340 
C20   C     0.44387399027635 0.61693003050475 0.32500856981406 
C21   C     0.47989454963818 0.32071888949424 0.31290899978804 
C22   C     0.54265015980938 0.47983274989958 0.30232429998000 
