data_stdin
_audit_creation_method 'critic2'
_audit_creation_date 2023-8-11
_chemical_formula_sum 'C22 H14'
_cell_formula_units_Z 8
_cell_length_a         7.5476726134
_cell_length_b        14.2931728241
_cell_length_c        27.1174614085
_cell_angle_alpha        89.9960
_cell_angle_beta        89.9992
_cell_angle_gamma        89.9983
_cell_volume          2925.436856
_space_group_crystal_system orthorhombic
_space_group_IT_number 61
_space_group_name_H-M_alt 'Pbca'
_space_group_name_Hall '-P 2ac 2ab'
loop_
_symmetry_equiv_pos_site_id
_symmetry_equiv_pos_as_xyz
 1 'x,y,z'
 2 '-x,-y,-z'
 3 '-1/2-x,-y,-1/2+z'
 4 '-1/2+x,y,-1/2-z'
 5 '-1/2+x,-1/2-y,-z'
 6 '-1/2-x,-1/2+y,z'
 7 '-x,-1/2+y,-1/2-z'
 8 'x,-1/2-y,-1/2+z'
loop_
_atom_site_label
_atom_site_type_symbol
_atom_site_fract_x
_atom_site_fract_y
_atom_site_fract_z
H1    H     0.39424384938562 0.75835477016939 0.83974982014280 
H2    H     0.69286428986970 0.70517841979042 0.85965179982733 
H3    H     0.82325194960803 0.73558035970333 0.94282977991647 
H4    H     0.65496820998259 0.83044944995881 0.00337025990386 
H5    H     0.40899302006222 0.93461441020934 0.02223717008547 
H6    H     0.15053425982020 0.02429808031011 0.99238973999187 
H7    H     0.93812152964002 0.06107443980467 0.92979414993457 
H8    H     0.18391791006454 0.66735990977403 0.89944373983989 
H9    H     0.79714439952993 0.02813116973147 0.84880287016678 
H10   H     0.75183301023814 0.92907444010106 0.77959170988292 
H11   H     0.79084443045647 0.77816634988397 0.73632294005266 
H12   H     0.16522392023240 0.50989686034893 0.86445207017675 
H13   H     0.89324144990196 0.61734758965037 0.73710227003359 
H14   H     0.03429479052935 0.48406982979415 0.78126153997886 
C1    C     0.44695827958753 0.77241325966771 0.87622965995152 
C2    C     0.34385433042350 0.82392640988748 0.91042142010463 
C3    C     0.16970700944003 0.86172850993495 0.89864186018330 
C4    C     0.05884294011437 0.83128025003685 0.85817778010719 
C5    C     0.61600821016870 0.74204787030049 0.88746215998758 
C6    C     0.42669345953280 0.84870517021716 0.95618078009757 
C7    C     0.11302655018913 0.94096038976766 0.92645378985338 
C8    C     0.05511323063498 0.73688040976384 0.83801189985846 
C9    C     0.93385146942556 0.89633176000413 0.83872720012396 
C10   C     0.69042510973670 0.76003036978150 0.93411490009012 
C11   C     0.59639590003799 0.81256685976816 0.96786202994105 
C12   C     0.34579168966381 0.91682052991665 0.98735970992850 
C13   C     0.20132249038108 0.96540011034049 0.97122456002575 
C14   C     0.96228173978158 0.71947926007295 0.79273124985255 
C15   C     0.97399601956822 0.99912207026584 0.90867757996192 
C16   C     0.12352469058201 0.65799133010921 0.86340646991188 
C17   C     0.89560607963969 0.98080472033819 0.86428710994033 
C18   C     0.84111101007591 0.87601569010719 0.79410955016891 
C19   C     0.86165467064394 0.79255982974364 0.77042401993772 
C20   C     0.11370900055719 0.56893811033763 0.84367259003587 
C21   C     0.96070383938137 0.62830315024014 0.77218255987112 
C22   C     0.03686162040468 0.55411358988593 0.79697657011217 
