data_stdin
_audit_creation_method 'critic2'
_audit_creation_date 2023-8-11
_chemical_formula_sum 'C22 H14'
_cell_formula_units_Z 4
_cell_length_a        10.0410163315
_cell_length_b        30.6771001206
_cell_length_c         4.6741102912
_cell_angle_alpha        89.9976
_cell_angle_beta        90.0018
_cell_angle_gamma        89.9993
_cell_volume          1439.762748
_space_group_crystal_system orthorhombic
_space_group_IT_number 33
_space_group_name_H-M_alt 'Pna2_1'
_space_group_name_Hall 'P 2c -2n'
loop_
_symmetry_equiv_pos_site_id
_symmetry_equiv_pos_as_xyz
 1 'x,y,z'
 2 '-x,-y,-1/2+z'
 3 '-1/2-x,-1/2+y,-1/2+z'
 4 '-1/2+x,-1/2-y,z'
loop_
_atom_site_label
_atom_site_type_symbol
_atom_site_fract_x
_atom_site_fract_y
_atom_site_fract_z
H1    H     0.59645050015183 0.06607006007120 0.00651232092394 
H2    H     0.57662242950950 0.98729155014296 0.06399190992862 
H3    H     0.71211620964248 0.94815986011467 0.43447428916149 
H4    H     0.88043203015305 0.98929257016250 0.71550327015989 
H5    H     0.00044564027813 0.05618119007467 0.81691041016670 
H6    H     0.05073461019470 0.13296024985507 0.68991087983799 
H7    H     0.01390833005889 0.19622856010197 0.39660180073642 
H8    H     0.51257151019136 0.09770964008639 0.49338839099013 
H9    H     0.88388414977042 0.23503591995996 0.02443308960090 
H10   H     0.68860031011210 0.23958684014761 0.71712737033019 
H11   H     0.45344560019765 0.21958034013663 0.62078380004491 
H12   H     0.26933901963100 0.09072969006342 0.47893195992578 
H13   H     0.25086974976300 0.18426881004147 0.79449566959138 
H14   H     0.13624600960483 0.13281169006554 0.12519193055194 
C1    C     0.65588692979760 0.04990855010072 0.16902126021578 
C2    C     0.74506839989872 0.07485291992787 0.33780574934297 
C3    C     0.76106006992444 0.12165434993640 0.30458816047344 
C4    C     0.66908313006632 0.14980414002631 0.15503485944172 
C5    C     0.64516701963274 0.00526777990130 0.20067595970031 
C6    C     0.83186596020284 0.05159253996918 0.52720419952622 
C7    C     0.88082325047575 0.14054236997049 0.40991836898702 
C8    C     0.52590823982441 0.14337315985463 0.14153804932106 
C9    C     0.72022101968680 0.18877278011671 0.03181484099597 
C10   C     0.72355667993652 0.98312801987487 0.40416429031880 
C11   C     0.81636374045825 0.00600084010555 0.56222910985202 
C12   C     0.93762577015109 0.07410182986404 0.66771149022235 
C13   C     0.96426011967742 0.11650544986617 0.60030129013898 
C14   C     0.44799853997991 0.16960701985242 0.95141408960270 
C15   C     0.92061052027824 0.18274762015446 0.31657560078826 
C16   C     0.45668962998139 0.11559645007953 0.33292126060812 
C17   C     0.84788500996221 0.20449162988881 0.11421749071892 
C18   C     0.64150252000027 0.21276899997271 0.83158708072122 
C19   C     0.51159386038205 0.20216203989014 0.78112321913409 
C20   C     0.31965005049014 0.11196239009319 0.32691264056612 
C21   C     0.30784987034681 0.16461386995167 0.94535019898175 
C22   C     0.24412220952172 0.13612978006997 0.12851217912304 
