data_stdin
_audit_creation_method 'critic2'
_audit_creation_date 2023-8-11
_chemical_formula_sum 'C22 H14'
_cell_formula_units_Z 4
_cell_length_a         8.5822673727
_cell_length_b         8.0498871128
_cell_length_c        22.0599029403
_cell_angle_alpha        89.9985
_cell_angle_beta        67.7688
_cell_angle_gamma        89.9994
_cell_volume          1410.747036
_space_group_crystal_system monoclinic
_space_group_IT_number 14
_space_group_name_H-M_alt 'P2_1/c'
_space_group_name_Hall '-P 2ybc'
loop_
_symmetry_equiv_pos_site_id
_symmetry_equiv_pos_as_xyz
 1 'x,y,z'
 2 '-x,-y,-z'
 3 '-x,-1/2+y,-1/2-z'
 4 'x,-1/2-y,-1/2+z'
loop_
_atom_site_label
_atom_site_type_symbol
_atom_site_fract_x
_atom_site_fract_y
_atom_site_fract_z
H1    H     0.73188272016456 0.44998293968265 0.37933974980332 
H2    H     0.90699236003807 0.53548011060014 0.43893650012745 
H3    H     0.84448421979586 0.43467031047836 0.55295999024181 
H4    H     0.59572515052027 0.25626039055521 0.60698987980092 
H5    H     0.35060860966827 0.11042741042465 0.60621184014966 
H6    H     0.14057526956873 0.06809705964483 0.55517420010035 
H7    H     0.03776737015983 0.13934421969408 0.47055991988836 
H8    H     0.78213889037272 0.13338857956885 0.35666202979265 
H9    H     0.08259887060396 0.26767685022311 0.36292267993146 
H10   H     0.26757485023640 0.39439306025625 0.26152564996339 
H11   H     0.55587258949964 0.44083903001852 0.17926563998876 
H12   H     0.05255155040899 0.10342209963252 0.26428866002957 
H13   H     0.85141779010037 0.36083392966378 0.13870722999912 
H14   H     0.09295711036148 0.22481090988056 0.15507707980021 
C1    C     0.70548505016896 0.39992124059244 0.42792084016322 
C2    C     0.56750073987801 0.29044297013458 0.45597589983189 
C3    C     0.45638818954544 0.24328150959938 0.42303660003387 
C4    C     0.49149921954969 0.27190783016099 0.35443358014207 
C5    C     0.80406416001962 0.44892749999930 0.46174309980801 
C6    C     0.52680947013761 0.24164010985577 0.52260010003392 
C7    C     0.29462971957283 0.18011991049174 0.46252541011708 
C8    C     0.65749648022550 0.26619152963785 0.30236405977267 
C9    C     0.35194709035804 0.29572601996977 0.33539063006642 
C10   C     0.76863841995430 0.39277468034845 0.52604442009197 
C11   C     0.63067740035782 0.29234231971475 0.55600600984900 
C12   C     0.37595500056621 0.15136670043047 0.55631440982374 
C13   C     0.26135937041877 0.12694807015313 0.52798625015577 
C14   C     0.67865583993576 0.32502765051096 0.23844328987669 
C15   C     0.16245600970415 0.18124991970852 0.43843698013664 
C16   C     0.79698666070607 0.18614655002848 0.30945631982757 
C17   C     0.18717646019340 0.25075217949133 0.37883631993222 
C18   C     0.37783566960688 0.36154194986054 0.27214679999710 
C19   C     0.53624484971938 0.38456568970441 0.22644697005841 
C20   C     0.94987044965320 0.17010156989325 0.25751491013190 
C21   C     0.83824915021245 0.31276985009671 0.18660674015798 
C22   C     0.97203317995263 0.23647153035832 0.19567397994246 
