data_stdin
_audit_creation_method 'critic2'
_audit_creation_date 2023-8-11
_chemical_formula_sum 'C22 H14'
_cell_formula_units_Z 4
_cell_length_a         5.9908856155
_cell_length_b        18.8460744156
_cell_length_c        12.8064310439
_cell_angle_alpha        90.0001
_cell_angle_beta        81.1686
_cell_angle_gamma        89.9991
_cell_volume          1428.764019
_space_group_crystal_system monoclinic
_space_group_IT_number 14
_space_group_name_H-M_alt 'P2_1/c'
_space_group_name_Hall '-P 2ybc'
loop_
_symmetry_equiv_pos_site_id
_symmetry_equiv_pos_as_xyz
 1 'x,y,z'
 2 '-x,-y,-z'
 3 '-x,-1/2+y,-1/2-z'
 4 'x,-1/2-y,-1/2+z'
loop_
_atom_site_label
_atom_site_type_symbol
_atom_site_fract_x
_atom_site_fract_y
_atom_site_fract_z
H1    H     0.02444503957284 0.44045718004775 0.88610306006123 
H2    H     0.16911878938670 0.45853611002621 0.05388587019030 
H3    H     0.54780888000845 0.41274406986140 0.07691872035444 
H4    H     0.75581005948549 0.33342865021010 0.93936554966606 
H5    H     0.76525039950324 0.26487400000077 0.77705308999000 
H6    H     0.57898901031801 0.22872489988950 0.62460405017379 
H7    H     0.28485285925003 0.23970177011378 0.51921924975840 
H8    H     0.33925466972447 0.50956736979837 0.76110021997216 
H9    H     0.94641442087429 0.30249331998113 0.47468063979070 
H10   H     0.68779181061837 0.39841772986681 0.49705846032736 
H11   H     0.56332371931667 0.51540749981440 0.57433146027987 
H12   H     0.25838175077050 0.63451173976284 0.80215788959715 
H13   H     0.64298164972655 0.62036119018779 0.66990185969988 
H14   H     0.89809819025366 0.68977091010626 0.76618943987302 
C1    C     0.18818759926117 0.41893666003887 0.89582997974278 
C2    C     0.31230080077575 0.38003135975978 0.81153234002372 
C3    C     0.23653318918646 0.37036390005125 0.70994470027833 
C4    C     0.07556714984635 0.41528211022917 0.66826104003997 
C5    C     0.26936724066367 0.42929185018107 0.99003376020546 
C6    C     0.51172552969933 0.34420254981404 0.83232298026653 
C7    C     0.32257402051772 0.31008292014418 0.64945177960596 
C8    C     0.03154902052677 0.48938772977411 0.69642108015786 
C9    C     0.96189464989896 0.38686670020707 0.58771648034724 
C10   C     0.48113034991133 0.40159448011653 0.00428913995082 
C11   C     0.59771348018823 0.35853433975516 0.92731230027819 
C12   C     0.61280231074783 0.29136350993484 0.76064055973266 
C13   C     0.51232886074764 0.27217940995156 0.67617349976067 
C14   C     0.84000572063353 0.52403914987937 0.66460175001334 
C15   C     0.21915644050393 0.28692379011627 0.56248191968172 
C16   C     0.18233816007289 0.53228626003284 0.74398087999540 
C17   C     0.03469841076105 0.32189184015267 0.53725107965750 
C18   C     0.77596985934631 0.42372277992553 0.55543425001618 
C19   C     0.70909227978979 0.48829436013908 0.59680435026389 
C20   C     0.13688768973491 0.60301951978145 0.76709265032457 
C21   C     0.79198611993090 0.59561459985803 0.69339384031659 
C22   C     0.93636987004491 0.63469702005460 0.74503774964668 
