data_stdin
_audit_creation_method 'critic2'
_audit_creation_date 2023-8-11
_chemical_formula_sum 'C22 H14'
_cell_formula_units_Z 4
_cell_length_a         8.5637847199
_cell_length_b        20.1189101000
_cell_length_c         8.4423628440
_cell_angle_alpha        90.0007
_cell_angle_beta        83.2962
_cell_angle_gamma        90.0008
_cell_volume          1444.623678
_space_group_crystal_system monoclinic
_space_group_IT_number 14
_space_group_name_H-M_alt 'P2_1/c'
_space_group_name_Hall '-P 2ybc'
loop_
_symmetry_equiv_pos_site_id
_symmetry_equiv_pos_as_xyz
 1 'x,y,z'
 2 '-x,-y,-z'
 3 '-x,-1/2+y,-1/2-z'
 4 'x,-1/2-y,-1/2+z'
loop_
_atom_site_label
_atom_site_type_symbol
_atom_site_fract_x
_atom_site_fract_y
_atom_site_fract_z
H1    H     0.36740375049314 0.61130638017941 0.25119812040909 
H2    H     0.11037032979262 0.64570189980195 0.17872672005172 
H3    H     0.91008344047898 0.69504561022263 0.38272791985725 
H4    H     0.97148075022317 0.70933408983566 0.66025591961808 
H5    H     0.14301204029276 0.69068080999058 0.86714873051070 
H6    H     0.36823791952423 0.62826367016184 0.95385932940246 
H7    H     0.58340292052339 0.55235338001887 0.89556144987974 
H8    H     0.51407923990236 0.71474288981639 0.31972505941972 
H9    H     0.77759238027941 0.49460221015379 0.69990348986849 
H10   H     0.89083520974365 0.47459705977975 0.43081025000778 
H11   H     0.93657025947233 0.50965202991996 0.14775112030835 
H12   H     0.60622136009181 0.76317814997192 0.06181244944743 
H13   H     0.90708145056473 0.59456710993708 0.94605390001586 
H14   H     0.79214834015346 0.70056682005537 0.86496988980195 
C1    C     0.28335781020217 0.63427694997379 0.34083487978058 
C2    C     0.32306690048365 0.64124368987636 0.49846949963347 
C3    C     0.46831164056291 0.61528769999228 0.54812204965599 
C4    C     0.60412983991734 0.59501025999077 0.44106255980288 
C5    C     0.13833344995835 0.65321362993506 0.29998090992497 
C6    C     0.20491024040597 0.66750089975713 0.61588851968210 
C7    C     0.47045052966810 0.60359131014549 0.71430403943857 
C8    C     0.65171998978547 0.62402425024436 0.28522099003477 
C9    C     0.70650095987823 0.54664804023286 0.49615903014250 
C10   C     0.02497117056684 0.68120834011303 0.41498130000270 
C11   C     0.05904730016003 0.68873093003614 0.56969470027842 
C12   C     0.22937482034504 0.66691874002331 0.78036640985674 
C13   C     0.35412567955851 0.63318243024751 0.82774923032897 
C14   C     0.77170972997931 0.59210993010070 0.17906453013619 
C15   C     0.58627373033474 0.56126814005601 0.76804646015337 
C16   C     0.59760400030996 0.68689432012277 0.23864494052140 
C17   C     0.69461264053802 0.53032714977868 0.66095671946761 
C18   C     0.82356019006538 0.51517909978512 0.38685767983425 
C19   C     0.84938752991771 0.53477258016915 0.23133420990107 
C20   C     0.64938362974436 0.71444994021496 0.09187610969274 
C21   C     0.81894413018802 0.62035617001292 0.02736147981888 
C22   C     0.75732346024468 0.67999973006339 0.98291669960002 
