data_stdin
_audit_creation_method 'critic2'
_audit_creation_date 2023-8-11
_chemical_formula_sum 'C22 H14'
_cell_formula_units_Z 8
_cell_length_a        22.2303479112
_cell_length_b         8.3990373423
_cell_length_c        17.1969982947
_cell_angle_alpha        90.0013
_cell_angle_beta        63.2226
_cell_angle_gamma        90.0011
_cell_volume          2866.584736
_space_group_crystal_system monoclinic
_space_group_IT_number 15
_space_group_name_H-M_alt 'C2/c'
_space_group_name_Hall '-C 2yc'
loop_
_symmetry_equiv_pos_site_id
_symmetry_equiv_pos_as_xyz
 1 'x,y,z'
 2 '-x,-y,-z'
 3 '-x,y,-1/2-z'
 4 'x,-y,-1/2+z'
 5 '-1/2+x,-1/2+y,z'
 6 '-1/2-x,-1/2-y,-z'
 7 '-1/2-x,-1/2+y,-1/2-z'
 8 '-1/2+x,-1/2-y,-1/2+z'
loop_
_atom_site_label
_atom_site_type_symbol
_atom_site_fract_x
_atom_site_fract_y
_atom_site_fract_z
H1    H     0.14785615703382 0.94947868461495 0.33906428903256 
H2    H     0.06494429337829 0.94570558336429 0.28254844831612 
H3    H     0.96410318024560 0.12280357110263 0.34533859611698 
H4    H     0.94643093977125 0.29872620480989 0.47009856284784 
H5    H     0.97854662262819 0.39027585150635 0.57964902722123 
H6    H     0.04853009543996 0.35574706864067 0.65671628673175 
H7    H     0.13562378731761 0.21887138416267 0.67511575158921 
H8    H     0.20443911871520 0.22955140540112 0.30272499734262 
H9    H     0.23086979880333 0.02784309177114 0.62256393823772 
H10   H     0.31390600518098 0.86985560043328 0.50673588943545 
H11   H     0.37811897380587 0.80810377134612 0.34935615319320 
H12   H     0.28234210042931 0.21770355647756 0.14821422809286 
H13   H     0.40400171590996 0.87457715576214 0.19975837428570 
H14   H     0.37996044794435 0.02672127836177 0.09327527402111 
C1    C     0.10531677795226 0.03060964796240 0.36666358978594 
C2    C     0.09818519433766 0.13307214957615 0.43581600708924 
C3    C     0.14474820831683 0.13376975339802 0.47408777045408 
C4    C     0.21112356313152 0.06250215519429 0.43573493115639 
C5    C     0.05826137891912 0.02771522944709 0.33477860652773 
C6    C     0.03809208153332 0.22747994523009 0.47478741520459 
C7    C     0.12106332876729 0.20007953402811 0.55908746737406 
C8    C     0.25559118997865 0.05252458072863 0.34287646588786 
C9    C     0.23819337795179 0.01215140746604 0.49263950396965 
C10   C     0.00118991719628 0.12726458921415 0.37036295013988 
C11   C     0.99141477859410 0.22489092273369 0.43964490065088 
C12   C     0.02344979717948 0.31619111575414 0.55201064905036 
C13   C     0.06216127739073 0.29753923318249 0.59434547167425 
C14   C     0.31597747395341 0.95949473646840 0.31232113948440 
C15   C     0.15456214465276 0.16561280394398 0.61064816602579 
C16   C     0.24651441149985 0.14733785626478 0.28092873106109 
C17   C     0.20808524552584 0.06320432118452 0.58093687704917 
C18   C     0.29767624361588 0.91634726839954 0.46017062216791 
C19   C     0.33359061797904 0.88383044147575 0.37350350234638 
C20   C     0.29101880198512 0.14110221147089 0.19325996699148 
C21   C     0.35963950505690 0.95067213808377 0.22186198609915 
C22   C     0.34687653932471 0.03777243192671 0.16276230091104 
