data_stdin
_audit_creation_method 'critic2'
_audit_creation_date 2023-8-11
_chemical_formula_sum 'C22 H14'
_cell_formula_units_Z 8
_cell_length_a        15.9655063476
_cell_length_b         8.7737124512
_cell_length_c        20.7835561713
_cell_angle_alpha        90.0008
_cell_angle_beta        91.8802
_cell_angle_gamma        90.0003
_cell_volume          2909.725778
_space_group_crystal_system monoclinic
_space_group_IT_number 15
_space_group_name_H-M_alt 'C2/c'
_space_group_name_Hall '-C 2yc'
loop_
_symmetry_equiv_pos_site_id
_symmetry_equiv_pos_as_xyz
 1 'x,y,z'
 2 '-1/2-x,-1/2-y,-1/2-z'
 3 '-x,-1/2+y,-1/2-z'
 4 'x,-1/2-y,-1/2+z'
 5 '-1/2+x,-1/2+y,-1/2+z'
 6 '-x,-y,-z'
 7 '-1/2-x,y,-z'
 8 '-1/2+x,-y,z'
loop_
_atom_site_label
_atom_site_type_symbol
_atom_site_fract_x
_atom_site_fract_y
_atom_site_fract_z
H1    H     0.80460339028324 0.37951480995018 0.02166543021457 
H2    H     0.78822964972083 0.59328740011309 0.09535076976105 
H3    H     0.85998892971453 0.59117841960121 0.20436943998137 
H4    H     0.93938986006659 0.36087033996935 0.23961368007062 
H5    H     0.98684306009466 0.10323962978369 0.22179791988488 
H6    H     0.97698297022996 0.86546075948643 0.15655839999368 
H7    H     0.91924475973577 0.72769411043951 0.06776728988701 
H8    H     0.95297159002648 0.37836751973059 0.99165142022808 
H9    H     0.84212783979495 0.71888359021187 0.96202701006607 
H10   H     0.78525342013876 0.84363028966664 0.86868160005069 
H11   H     0.77211895007693 0.07214737947911 0.79883541017577 
H12   H     0.96488177975567 0.58475874009530 0.91303556988288 
H13   H     0.81493176000366 0.32967335993205 0.77558843010295 
H14   H     0.89183046002219 0.56705997945946 0.80545214989175 
C1    C     0.83631124980137 0.37586399956474 0.06853192987464 
C2    C     0.88428393016028 0.24528245989208 0.08560720977225 
C3    C     0.89088182993142 0.11277569960666 0.04397567980186 
C4    C     0.86763931021682 0.10772532001358 0.97597990020555 
C5    C     0.82721367991965 0.49694483046077 0.11015980017625 
C6    C     0.91948141019894 0.24006786036976 0.14995252985283 
C7    C     0.91580335030452 0.97358701949976 0.07421779996942 
C8    C     0.87292189987969 0.23483812956648 0.93141485014005 
C9    C     0.84387064969612 0.96397799017715 0.94913544990689 
C10   C     0.86659992976274 0.49492253976431 0.17178556977915 
C11   C     0.91144491004094 0.36757318948319 0.19117129001699 
C12   C     0.95810878979073 0.10354064049644 0.17351822983308 
C13   C     0.95289549026303 0.97340839951704 0.13768891999900 
C14   C     0.83738508991477 0.22053873054974 0.86747396006592 
C15   C     0.90074412992376 0.83193392976733 0.04281357003895 
C16   C     0.91988763000058 0.36867029001469 0.94539527993723 
C17   C     0.85943173974228 0.82732521976547 0.98425213985445 
C18   C     0.80735553991274 0.95456659987481 0.88564921006525 
C19   C     0.80075988976805 0.07979854981646 0.84698246006577 
C20   C     0.92684021002854 0.48517032032431 0.90114493990088 
C21   C     0.84335000972426 0.34317022054190 0.82357731017813 
C22   C     0.88662553977497 0.47437287017663 0.83995686982321 
