data_stdin
_audit_creation_method 'critic2'
_audit_creation_date 2023-8-11
_chemical_formula_sum 'C22 H14'
_cell_formula_units_Z 8
_cell_length_a        32.6740180472
_cell_length_b         5.4138755511
_cell_length_c        17.1521032189
_cell_angle_alpha        89.9921
_cell_angle_beta        74.6750
_cell_angle_gamma        89.9989
_cell_volume          2926.201949
_space_group_crystal_system monoclinic
_space_group_IT_number 15
_space_group_name_H-M_alt 'C2/c'
_space_group_name_Hall '-C 2yc'
loop_
_symmetry_equiv_pos_site_id
_symmetry_equiv_pos_as_xyz
 1 'x,y,z'
 2 '-1/2-x,-1/2-y,-z'
 3 '-1/2-x,-1/2+y,-1/2-z'
 4 'x,-y,-1/2+z'
 5 '-1/2+x,-1/2+y,z'
 6 '-x,-y,-z'
 7 '-x,y,-1/2-z'
 8 '-1/2+x,-1/2-y,-1/2+z'
loop_
_atom_site_label
_atom_site_type_symbol
_atom_site_fract_x
_atom_site_fract_y
_atom_site_fract_z
H1    H     0.41948185002776 0.84463409917474 0.63296681030210 
H2    H     0.46444218986727 0.69013449064250 0.71617006989931 
H3    H     0.44628502017145 0.29600492085479 0.79420378978794 
H4    H     0.37920235989797 0.08102995071166 0.79545755999077 
H5    H     0.31297040990673 0.05893240921829 0.75688833025142 
H6    H     0.26024796005555 0.26500002049598 0.69810061015011 
H7    H     0.24015077991099 0.60052249978190 0.62313792989000 
H8    H     0.42864012006959 0.49914277075053 0.52403074019965 
H9    H     0.25866598002934 0.97267428943791 0.53709615979341 
H10   H     0.31022106011684 0.25285123931518 0.45892925976779 
H11   H     0.38475966011289 0.36864164034845 0.39425688015930 
H12   H     0.50034180012530 0.57402191931057 0.43790990988008 
H13   H     0.45931563017002 0.26255227061781 0.35920566983211 
H14   H     0.51752097988270 0.96307976059349 0.35955621992267 
C1    C     0.41126152985663 0.67223904948775 0.66570715014652 
C2    C     0.37432563992500 0.54393757051949 0.66029146993914 
C3    C     0.34690644007010 0.63032231912435 0.61157863024056 
C4    C     0.35904419982643 0.80537152079151 0.54584319021660 
C5    C     0.43652146988528 0.58524071976162 0.71288379014219 
C6    C     0.36191903999999 0.33315856996240 0.71164280026371 
C7    C     0.30414768991061 0.54390205005384 0.63383646006414 
C8    C     0.40211625992831 0.84429482959520 0.49608578991778 
C9    C     0.32620939005576 0.94035395946524 0.52426901023148 
C10   C     0.42607655992361 0.36548442944969 0.75778460988584 
C11   C     0.38889682006968 0.24401242060023 0.75786175002718 
C12   C     0.32120238004346 0.22477688005754 0.72013222979695 
C13   C     0.29249858001113 0.33622203013831 0.68649976020166 
C14   C     0.41111158011665 0.05362459078767 0.44320576974563 
C15   C     0.27281240002940 0.66568918937225 0.60405314029339 
C16   C     0.43534379014203 0.67140671934398 0.49069503977747 
C17   C     0.28312584988432 0.86935479933968 0.55559465018386 
C18   C     0.33629962002079 0.14494119011236 0.46997760018350 
C19   C     0.37734119991207 0.20821081926889 0.43379015983478 
C20   C     0.47580635005903 0.71297707059550 0.44210519975926 
C21   C     0.45323489011875 0.09713574003210 0.39651601021309 
C22   C     0.48535467009455 0.93167504025406 0.39653214010653 
