data_stdin
_audit_creation_method 'critic2'
_audit_creation_date 2023-8-11
_chemical_formula_sum 'C22 H14'
_cell_formula_units_Z 4
_cell_length_a        18.6953920790
_cell_length_b         5.4066958430
_cell_length_c        16.9174722369
_cell_angle_alpha        89.9961
_cell_angle_beta        59.7208
_cell_angle_gamma        89.9969
_cell_volume          1476.739734
_space_group_crystal_system monoclinic
_space_group_IT_number 9
_space_group_name_H-M_alt 'Cc'
_space_group_name_Hall 'C -2yc'
loop_
_symmetry_equiv_pos_site_id
_symmetry_equiv_pos_as_xyz
 1 'x,y,z'
 2 'x,-y,-1/2+z'
 3 '-1/2+x,-1/2+y,z'
 4 '-1/2+x,-1/2-y,-1/2+z'
loop_
_atom_site_label
_atom_site_type_symbol
_atom_site_fract_x
_atom_site_fract_y
_atom_site_fract_z
H1    H     0.96376118972802 0.72781241070106 0.02286478017646 
H2    H     0.86473394001717 0.87222154968641 0.97787296968975 
H3    H     0.79053407996527 0.27232626977781 0.03620314983134 
H4    H     0.80814916008872 0.50846093075334 0.15163893996108 
H5    H     0.86031663013338 0.53828372049108 0.25703593007407 
H6    H     0.92858309999212 0.33063680076887 0.33223902997929 
H7    H     0.00310124013279 0.98573828935957 0.34570192973057 
H8    H     0.07888555973183 0.07104148958022 0.95835921000871 
H9    H     0.08788724991681 0.60543347918025 0.28108067001075 
H10   H     0.15919917994769 0.31946052955560 0.15864392006993 
H11   H     0.21867101010066 0.20271640015552 0.99528205013260 
H12   H     0.16276972008145 0.99887278961445 0.79386222971515 
H13   H     0.25434348994564 0.32053302040682 0.84251726983513 
H14   H     0.24856101989096 0.61224159979265 0.73345201992743 
C1    C     0.93208408005339 0.90305309030004 0.04914767967499 
C2    C     0.94624963998697 0.03822119091730 0.11176500973608 
C3    C     0.00091599037106 0.95107644952404 0.14370513973056 
C4    C     0.06655731022423 0.77197073968156 0.09734134983020 
C5    C     0.87648084023934 0.98438629960376 0.02358128996086 
C6    C     0.89662580975880 0.25410589931034 0.15245822008654 
C7    C     0.98454336008518 0.04093810043552 0.23046428970008 
C8    C     0.11297757992148 0.73078579015439 0.99883376015718 
C9    C     0.09257288007335 0.63716555916037 0.15090269975836 
C10   C     0.83349039962260 0.20905546049397 0.05756529028550 
C11   C     0.84331909996330 0.33996912064734 0.12152595983069 
C12   C     0.89588999009516 0.36896752065705 0.22885274017656 
C13   C     0.93409165970682 0.25533453032662 0.26967669015786 
C14   C     0.16773286027884 0.52267183042165 0.96315372987757 
C15   C     0.01842460978526 0.91780628049794 0.27839503996204 
C16   C     0.11438441013367 0.90102159944429 0.93427678980099 
C17   C     0.06625069012740 0.71091551992085 0.24222616013825 
C18   C     0.14614245003110 0.42841249061785 0.11323357000384 
C19   C     0.17952098976309 0.36564022990604 0.02341494032776 
C20   C     0.16235488028245 0.86096128062239 0.84096736990018 
C21   C     0.21410206016008 0.48157234972137 0.86755356014836 
C22   C     0.21135583998425 0.64631100928771 0.80683583030468 
