data_stdin
_audit_creation_method 'critic2'
_audit_creation_date 2023-8-11
_chemical_formula_sum 'C22 H14'
_cell_formula_units_Z 4
_cell_length_a         8.0968110350
_cell_length_b        11.2444917000
_cell_length_c        15.9300499600
_cell_angle_alpha        90.0000
_cell_angle_beta        80.2410
_cell_angle_gamma        90.0001
_cell_volume          1429.356566
_space_group_crystal_system monoclinic
_space_group_IT_number 14
_space_group_name_H-M_alt 'P2_1/c'
_space_group_name_Hall '-P 2ybc'
loop_
_symmetry_equiv_pos_site_id
_symmetry_equiv_pos_as_xyz
 1 'x,y,z'
 2 '-x,-y,-z'
 3 '-x,-1/2+y,-1/2-z'
 4 'x,-1/2-y,-1/2+z'
loop_
_atom_site_label
_atom_site_type_symbol
_atom_site_fract_x
_atom_site_fract_y
_atom_site_fract_z
H1    H     0.91911573056015 0.08390158016849 0.17482553987249 
H2    H     0.03452870052954 0.22758555997789 0.26516851013219 
H3    H     0.03054856969983 0.44411477994541 0.23362852002951 
H4    H     0.91176451982464 0.51416057957813 0.10839178999053 
H5    H     0.78569192045850 0.47434690023357 0.98317531027123 
H6    H     0.71392900993825 0.32838481998736 0.87860671989627 
H7    H     0.69656663957449 0.12936443970685 0.82985714996363 
H8    H     0.61259058947045 0.11720102992762 0.20742477003824 
H9    H     0.72444065014379 0.91199380005335 0.85122841989888 
H10   H     0.75640952057266 0.74572858984610 0.94024592004257 
H11   H     0.72795815988994 0.65716858037036 0.08459072976165 
H12   H     0.51172136953096 0.02331512976170 0.34547471022619 
H13   H     0.63939357985707 0.67916784019317 0.23572640992108 
H14   H     0.53024590046416 0.80350905979141 0.36263672978979 
C1    C     0.90909946026028 0.17819369038465 0.16229758025708 
C2    C     0.83230741043330 0.21464091984906 0.09293933977853 
C3    C     0.76509175041306 0.13106400982874 0.03775145978045 
C4    C     0.73495340041365 0.00594673024522 0.05579807031235 
C5    C     0.97671752007105 0.25882079014316 0.21236963007005 
C6    C     0.83806704004554 0.33897438029574 0.07279787026424 
C7    C     0.73945857005816 0.17432887019922 0.95681605997846 
C8    C     0.68822876027537 0.95385860958228 0.14009222005687 
C9    C     0.73687484977200 0.92780236989399 0.98526520981066 
C10   C     0.97490930994564 0.38148421979968 0.19447990994068 
C11   C     0.90746742967697 0.42018476962195 0.12536743004912 
C12   C     0.78386100978890 0.37937279021410 0.99701627000338 
C13   C     0.74277451942801 0.29903671973496 0.93968035018068 
C14   C     0.68685449968669 0.82724333994297 0.14940869966347 
C15   C     0.71622900987636 0.09393096031773 0.89096890017790 
C16   C     0.62205600975666 0.02140336959995 0.21324558977147 
C17   C     0.72869155022467 0.97422788977059 0.90312210969213 
C18   C     0.74046270037353 0.80190183978406 0.99673451018574 
C19   C     0.72445788938690 0.75318308973931 0.07601246006726 
C20   C     0.56521929004348 0.96859260971262 0.29120214970228 
C21   C     0.63488472939256 0.77567929981459 0.23066994002362 
C22   C     0.57435303965472 0.84435467037289 0.30094404988776 
