data_stdin
_audit_creation_method 'critic2'
_audit_creation_date 2023-8-11
_chemical_formula_sum 'C22 H14'
_cell_formula_units_Z 2
_cell_length_a         8.6552802891
_cell_length_b        10.5692689704
_cell_length_c         8.2327387128
_cell_angle_alpha        78.2736
_cell_angle_beta        96.6778
_cell_angle_gamma        77.4242
_cell_volume           709.492935
_space_group_crystal_system triclinic
_space_group_IT_number 2
_space_group_name_H-M_alt 'P-1'
_space_group_name_Hall '-P 1'
loop_
_symmetry_equiv_pos_site_id
_symmetry_equiv_pos_as_xyz
 1 'x,y,z'
 2 '-x,-y,-z'
loop_
_atom_site_label
_atom_site_type_symbol
_atom_site_fract_x
_atom_site_fract_y
_atom_site_fract_z
H1    H     0.18814794059710 0.78245324004795 0.80599806057900 
H2    H     0.46155633040477 0.71253670021508 0.74671059019885 
H3    H     0.69130928961196 0.60837523985145 0.98034069981203 
H4    H     0.64489574026847 0.58124094969139 0.27628184940111 
H5    H     0.46923673975480 0.62373275017328 0.48082046035441 
H6    H     0.20907044965169 0.74487274995059 0.53734806954137 
H7    H     0.94612957007919 0.89111778029331 0.43831874046121 
H8    H     0.10907142998819 0.57257966974346 0.94389641010531 
H9    H     0.71749260020586 0.00779569021244 0.20571484008358 
H10   H     0.59245627983478 0.05143811999819 0.91643292960390 
H11   H     0.56213161966541 0.97772572005327 0.65002467042291 
H12   H     0.03383461018516 0.46318955037025 0.72166533972557 
H13   H     0.63236458981014 0.79890185026737 0.50301723004879 
H14   H     0.80013777988660 0.57803468027037 0.49491589059347 
C1    C     0.28673554001416 0.73533378998163 0.90971745957794 
C2    C     0.25454636054250 0.72004598992795 0.07655188993588 
C3    C     0.09624517001604 0.77076577972741 0.11476811000211 
C4    C     0.94853876057592 0.81076526019188 0.99479618040532 
C5    C     0.44043639931277 0.69691436032527 0.87621125973218 
C6    C     0.38915874047279 0.66732339984608 0.21037657941820 
C7    C     0.08882479999272 0.79296688981852 0.27895220974441 
C8    C     0.91640361934965 0.75129924017991 0.85394735976270 
C9    C     0.81852685983237 0.90689587951021 0.02453618014041 
C10   C     0.57100134993425 0.63889354024289 0.00845893047736 
C11   C     0.54480692957245 0.62405774991970 0.17249292000126 
C12   C     0.36729160993431 0.66881166999158 0.37931366041997 
C13   C     0.22391332024227 0.73490206009590 0.41056895023987 
C14   C     0.77516041995408 0.81238490958498 0.72975826061371 
C15   C     0.94834968015870 0.87532608952048 0.31186680999354 
C16   C     0.00738875961878 0.62464458028972 0.84546673965856 
C17   C     0.82143453032940 0.93774370011097 0.18494124042337 
C18   C     0.68253725012940 0.96967455049993 0.89503443971121 
C19   C     0.66560063005801 0.92865478033089 0.74863270023181 
C20   C     0.96548087048586 0.56309300003814 0.72001310997721 
C21   C     0.73864798939353 0.74998633049726 0.59829217960949 
C22   C     0.83145674998486 0.62718435000117 0.59334615018719 
