data_stdin
_audit_creation_method 'critic2'
_audit_creation_date 2023-8-11
_chemical_formula_sum 'C22 H14'
_cell_formula_units_Z 4
_cell_length_a        17.5887493694
_cell_length_b         5.3788538157
_cell_length_c        15.9394728480
_cell_angle_alpha        89.9986
_cell_angle_beta        77.3198
_cell_angle_gamma        90.0017
_cell_volume          1471.211347
_space_group_crystal_system monoclinic
_space_group_IT_number 13
_space_group_name_H-M_alt 'P2/c'
_space_group_name_Hall '-P 2yc'
loop_
_symmetry_equiv_pos_site_id
_symmetry_equiv_pos_as_xyz
 1 'x,y,z'
 2 '-x,-y,-z'
 3 '-1/2-x,y,-z'
 4 '-1/2+x,-y,z'
loop_
_atom_site_label
_atom_site_type_symbol
_atom_site_fract_x
_atom_site_fract_y
_atom_site_fract_z
H1    H     0.95816802012390 0.97622405974335 0.63843119976835 
H2    H     0.93831699975566 0.06776562936311 0.49397543015241 
H3    H     0.87475093006086 0.46008971916401 0.46474321970076 
H4    H     0.82025093971328 0.74651486934925 0.58662631021893 
H5    H     0.78741018033108 0.83573853030128 0.73980769970829 
H6    H     0.78185388972129 0.69519993970318 0.88894992997705 
H7    H     0.81191691986421 0.39361108916867 0.98934382031922 
H8    H     0.05286596016673 0.33191791070568 0.66510747987576 
H9    H     0.87917759974299 0.01025123092036 0.01961115014525 
H10   H     0.97302614977162 0.68750926976812 0.97383617031853 
H11   H     0.08561138996292 0.51507087064395 0.86769467001018 
H12   H     0.18017738979958 0.21251162951310 0.57773800998602 
H13   H     0.18637008993718 0.57619988012297 0.73914134027227 
H14   H     0.24629191001661 0.82332874086486 0.61047388989815 
C1    C     0.93062760990578 0.15000348019840 0.62708775998804 
C2    C     0.90431160005248 0.31435303056247 0.69689559985982 
C3    C     0.91313701973421 0.26186139026857 0.78370387026602 
C4    C     0.96726923994080 0.08430615050032 0.80577582013256 
C5    C     0.91948981973664 0.20106722065572 0.54566097000270 
C6    C     0.85987558001270 0.52618891001985 0.68164284017918 
C7    C     0.86088318970965 0.38473244086491 0.85204837007715 
C8    C     0.04178891022251 0.01536229081673 0.75092892022020 
C9    C     0.94918368991170 0.97976987086798 0.88994376016461 
C10   C     0.88211835025780 0.42173415014117 0.52949559983676 
C11   C     0.85214854984514 0.57988350909875 0.59684384027319 
C12   C     0.81934273989619 0.67137848058308 0.75245942991912 
C13   C     0.81677504983085 0.59417846070181 0.83462297982993 
C14   C     0.08351507975970 0.80612020084020 0.77379847988763 
C15   C     0.85180724014263 0.29691503048382 0.93781968009265 
C16   C     0.08003599979441 0.16110211947758 0.68005570977589 
C17   C     0.88996489022380 0.08767874052009 0.95493206971290 
C18   C     0.99181123030990 0.77089629926515 0.91041977970228 
C19   C     0.05431576024900 0.67817260002026 0.85268483013175 
C20   C     0.15204359006691 0.09407253028950 0.63092779026309 
C21   C     0.15626567023284 0.73776402923184 0.72106248985719 
C22   C     0.19001370021130 0.87731532041040 0.64991366004405 
