data_stdin
_audit_creation_method 'critic2'
_audit_creation_date 2023-8-11
_chemical_formula_sum 'C22 H14'
_cell_formula_units_Z 4
_cell_length_a         8.3311070774
_cell_length_b        15.6399230700
_cell_length_c        10.9949459437
_cell_angle_alpha        89.9999
_cell_angle_beta        86.0662
_cell_angle_gamma        90.0009
_cell_volume          1429.242841
_space_group_crystal_system monoclinic
_space_group_IT_number 14
_space_group_name_H-M_alt 'P2_1/c'
_space_group_name_Hall '-P 2ybc'
loop_
_symmetry_equiv_pos_site_id
_symmetry_equiv_pos_as_xyz
 1 'x,y,z'
 2 '-x,-y,-z'
 3 '-x,-1/2+y,-1/2-z'
 4 'x,-1/2-y,-1/2+z'
loop_
_atom_site_label
_atom_site_type_symbol
_atom_site_fract_x
_atom_site_fract_y
_atom_site_fract_z
H1    H     0.84359222982086 0.79597925970135 0.21017984987692 
H2    H     0.61104706041596 0.76887388022467 0.09342580989420 
H3    H     0.40651781971137 0.65866746021094 0.16309643039566 
H4    H     0.45355394961157 0.56952086002460 0.34371637022368 
H5    H     0.62608946029295 0.52565163002767 0.50456586009430 
H6    H     0.88962467974985 0.53358827001795 0.59496553004944 
H7    H     0.15464114046843 0.59347620997209 0.60000388030729 
H8    H     0.72142445950233 0.85701697995822 0.41923225961225 
H9    H     0.35951760987271 0.70075686012370 0.52806137038445 
H10   H     0.43273682004049 0.82993554027319 0.41630353991096 
H11   H     0.35113878030239 0.96883316030342 0.32919935010137 
H12   H     0.64360222005664 0.00364955027727 0.37263577991658 
H13   H     0.14071345950405 0.07186240974664 0.30012496000783 
H14   H     0.85386325017314 0.11206896984026 0.30473120957137 
C1    C     0.75642869987432 0.74842764002619 0.24302028993736 
C2    C     0.78215895951444 0.70271969001379 0.35106896979480 
C3    C     0.92302709001701 0.71610039011356 0.41975833023937 
C4    C     0.02729891987432 0.78992868980900 0.40803581966769 
C5    C     0.62504540028921 0.73244630995560 0.17635853001688 
C6    C     0.67358191969542 0.63410267022350 0.38385319034585 
C7    C     0.96738151984474 0.64818442002769 0.49693549963183 
C8    C     0.97663530975165 0.87578018982782 0.37763334003684 
C9    C     0.19027049995521 0.77929052005318 0.43681232010384 
C10   C     0.51162991969038 0.66955220992982 0.21455899009496 
C11   C     0.53713324031241 0.62062606012037 0.31599911958681 
C12   C     0.71075593961170 0.57657952996463 0.47866450023053 
C13   C     0.85583514006020 0.58115001002546 0.52900069030201 
C14   C     0.09591223010046 0.93995564997313 0.34908462973348 
C15   C     0.12402673981342 0.64587866972439 0.54081086009862 
C16   C     0.81367134045861 0.90242343971444 0.38766513995071 
C17   C     0.23574420993668 0.70607486983248 0.50313222995924 
C18   C     0.30684582022128 0.84359870974418 0.40310481987985 
C19   C     0.26223926007897 0.91999352989725 0.35573283039220 
C20   C     0.76991077948869 0.98537239993925 0.36183696020073 
C21   C     0.04803366054753 0.02415375016673 0.32131346965221 
C22   C     0.88758876971809 0.04665140997821 0.32538480981957 
