data_stdin
_audit_creation_method 'critic2'
_audit_creation_date 2023-8-11
_chemical_formula_sum 'C22 H14'
_cell_formula_units_Z 4
_cell_length_a        12.2987415391
_cell_length_b         8.9209331610
_cell_length_c        14.1843969038
_cell_angle_alpha        89.9992
_cell_angle_beta        67.1772
_cell_angle_gamma        89.9992
_cell_volume          1434.417948
_space_group_crystal_system monoclinic
_space_group_IT_number 14
_space_group_name_H-M_alt 'P2_1/c'
_space_group_name_Hall '-P 2ybc'
loop_
_symmetry_equiv_pos_site_id
_symmetry_equiv_pos_as_xyz
 1 'x,y,z'
 2 '-x,-y,-z'
 3 '-x,-1/2+y,-1/2-z'
 4 'x,-1/2-y,-1/2+z'
loop_
_atom_site_label
_atom_site_type_symbol
_atom_site_fract_x
_atom_site_fract_y
_atom_site_fract_z
H1    H     0.36190567026873 0.81697013011879 0.15106159011959 
H2    H     0.35597980946543 0.07484841972132 0.21253615038222 
H3    H     0.18231591997087 0.23920904024862 0.23830447020032 
H4    H     0.02149418001342 0.14582589973041 0.18969855026638 
H5    H     0.94586639995088 0.95978936024859 0.10458017968319 
H6    H     0.98189528961695 0.73046729009199 0.99869402026127 
H7    H     0.10391442015896 0.51959370051396 0.91725225962237 
H8    H     0.19076244027183 0.68215480982209 0.29372390014370 
H9    H     0.26958957989093 0.34679096006335 0.89798616024571 
H10   H     0.42147831014010 0.26237220009384 0.94831660991845 
H11   H     0.52421071986944 0.26151798971357 0.06869886037944 
H12   H     0.26467435013756 0.63750955023615 0.42819725999189 
H13   H     0.52671095002486 0.33361739952226 0.23140758018580 
H14   H     0.43802789045695 0.47275935024493 0.39726916967600 
C1    C     0.28563564026495 0.88668672016333 0.16156293025400 
C2    C     0.19302412024442 0.82692145984448 0.13702287016957 
C3    C     0.19714769974728 0.67723914970548 0.09480618023273 
C4    C     0.27375640051123 0.55736386041716 0.10012056965069 
C5    C     0.28232242993216 0.03205145999992 0.19619060964657 
C6    C     0.09934338043266 0.92690589024044 0.14278088973316 
C7    C     0.12836713995421 0.65365376029286 0.03502351966126 
C8    C     0.31714159972318 0.53719837005355 0.18129368974145 
C9    C     0.30459595007625 0.44467413965311 0.02294862989423 
C10   C     0.18495344971055 0.12537741987095 0.20993171026514 
C11   C     0.09515668984309 0.07301574048204 0.18334217020010 
C12   C     0.01784146022881 0.88415775044437 0.09838199000236 
C13   C     0.03689359009364 0.75665903996196 0.04098698030563 
C14   C     0.40952215983102 0.43093331041021 0.16780554019993 
C15   C     0.15394506998871 0.53124038981157 0.96556292967586 
C16   C     0.26558500951774 0.60761082041019 0.27820325019333 
C17   C     0.24456372036459 0.43527001965497 0.95540288009880 
C18   C     0.39637827030198 0.34009406017087 0.01231902962912 
C19   C     0.45168508001424 0.33829576971486 0.07897058008406 
C20   C     0.30744477979670 0.58313658956539 0.35440166012211 
C21   C     0.45405408023203 0.41201629048081 0.24540021969174 
C22   C     0.40454411997101 0.48784201991575 0.33718498996951 
