data_stdin
_audit_creation_method 'critic2'
_audit_creation_date 2023-8-11
_chemical_formula_sum 'C22 H14'
_cell_formula_units_Z 8
_cell_length_a        19.7288927201
_cell_length_b         8.4420235708
_cell_length_c        17.1342432601
_cell_angle_alpha        89.9997
_cell_angle_beta        90.0000
_cell_angle_gamma        90.0008
_cell_volume          2853.738668
_space_group_crystal_system orthorhombic
_space_group_IT_number 61
_space_group_name_H-M_alt 'Pbca'
_space_group_name_Hall '-P 2ac 2ab'
loop_
_symmetry_equiv_pos_site_id
_symmetry_equiv_pos_as_xyz
 1 'x,y,z'
 2 '-x,-y,-z'
 3 '-1/2+x,-1/2-y,-z'
 4 '-1/2-x,-1/2+y,z'
 5 '-x,-1/2+y,-1/2-z'
 6 'x,-1/2-y,-1/2+z'
 7 '-1/2-x,-y,-1/2+z'
 8 '-1/2+x,y,-1/2-z'
loop_
_atom_site_label
_atom_site_type_symbol
_atom_site_fract_x
_atom_site_fract_y
_atom_site_fract_z
H1    H     0.40545930992724 0.04712153040387 0.07152566007493 
H2    H     0.37368128012541 0.93692298010710 0.19865210024884 
H3    H     0.31313918994258 0.10377182002962 0.29704747981366 
H4    H     0.28972134002480 0.38644156963972 0.26717955973707 
H5    H     0.30074048022095 0.61592476019410 0.18251228989187 
H6    H     0.35786570006359 0.74146814021109 0.06921590002101 
H7    H     0.43510132983498 0.72135137946823 0.96010246978841 
H8    H     0.28766634993098 0.11652205027058 0.00220035014116 
H9    H     0.49802523991221 0.55927347044392 0.86343518014945 
H10   H     0.52182275020154 0.30458942940827 0.80436376023164 
H11   H     0.49032677978413 0.02430049007247 0.78046034993907 
H12   H     0.23862294003048 0.87193179024812 0.95290795026136 
H13   H     0.40539549986052 0.81574817947280 0.79348958014346 
H14   H     0.29890055020177 0.71199063943759 0.85148899003758 
C1    C     0.37787764990378 0.12075136037685 0.11275159993401 
C2    C     0.36271351983621 0.27983401056153 0.09263967993280 
C3    C     0.38371800004569 0.35124661000112 0.01934437020981 
C4    C     0.40438848021237 0.26401424031965 0.95093116995417 
C5    C     0.36039378983078 0.05894341002690 0.18473530004451 
C6    C     0.33233285001439 0.37745098010304 0.15138096021594 
C7    C     0.38933105975513 0.51932501008861 0.01715443027331 
C8    C     0.37685837976176 0.11143198054495 0.92770194988314 
C9    C     0.45019831015802 0.33875956963692 0.89833112986586 
C10   C     0.32653593977529 0.15292826977181 0.24036940980263 
C11   C     0.31291242980281 0.30971470042613 0.22362901019908 
C12   C     0.32672460975494 0.54433536044897 0.13897924991311 
C13   C     0.35739320016843 0.61311364950251 0.07606237990384 
C14   C     0.40823914975642 0.02587314962407 0.86514373025951 
C15   C     0.42894935015185 0.59343506013355 0.95825583999097 
C16   C     0.31492287984589 0.05127612957506 0.95746803004248 
C17   C     0.46267380977840 0.50426497990147 0.90408766011434 
C18   C     0.48243443014861 0.24736568962302 0.83880883028343 
C19   C     0.46465935981238 0.09369629953679 0.82510623006290 
C20   C     0.28695520976486 0.91206173993492 0.92961297022476 
C21   C     0.37983743991285 0.88077492022255 0.83983058980978 
C22   C     0.32024883995502 0.82377524034911 0.87137629024588 
