data_stdin
_audit_creation_method 'critic2'
_audit_creation_date 2023-8-11
_chemical_formula_sum 'C22 H14'
_cell_formula_units_Z 2
_cell_length_a         9.8978269553
_cell_length_b         5.0623652042
_cell_length_c        14.1798734976
_cell_angle_alpha        89.9983
_cell_angle_beta        93.9693
_cell_angle_gamma        90.0006
_cell_volume           708.798332
_space_group_crystal_system monoclinic
_space_group_IT_number 4
_space_group_name_H-M_alt 'P2_1'
_space_group_name_Hall 'P 2yb'
loop_
_symmetry_equiv_pos_site_id
_symmetry_equiv_pos_as_xyz
 1 'x,y,z'
 2 '-x,-1/2+y,-z'
loop_
_atom_site_label
_atom_site_type_symbol
_atom_site_fract_x
_atom_site_fract_y
_atom_site_fract_z
H1    H     0.52689705047348 0.97210350918027 0.77570484010142 
H2    H     0.28310447023919 0.88516724054754 0.75838930001534 
H3    H     0.19306809977385 0.49576980045431 0.66585659986608 
H4    H     0.35225529027297 0.21164098076819 0.58219688002936 
H5    H     0.57691664964899 0.12700156008536 0.53073918973490 
H6    H     0.80903743968967 0.28840523001400 0.51360769974038 
H7    H     0.98458086953847 0.61684570916298 0.54743951973245 
H8    H     0.62957752044689 0.54615557961403 0.86695774002632 
H9    H     0.07841646014672 0.99445624047597 0.64409246003469 
H10   H     0.07314973016120 0.27830343003508 0.78107274992048 
H11   H     0.97973096016242 0.39424009907913 0.93252308014008 
H12   H     0.57293488950556 0.60467067008669 0.03046536999434 
H13   H     0.83534580984780 0.28371188021747 0.05803345966198 
H14   H     0.66819521968689 0.98437938938672 0.12645016988979 
C1    C     0.49014525970912 0.80024461031936 0.73591100970830 
C2    C     0.58403049959103 0.63619218908010 0.69265103964484 
C3    C     0.72846503043993 0.69081749959945 0.69735551030292 
C4    C     0.79933216045917 0.85580893062102 0.76745724015541 
C5    C     0.35248670955159 0.75172296033641 0.72569132025193 
C6    C     0.53067140048715 0.42762418082350 0.63302609007929 
C7    C     0.80274462971291 0.58666099998516 0.62336044978625 
C8    C     0.76033858967948 0.88919880062965 0.86369861983037 
C9    C     0.92160633960940 0.97911498977952 0.74332344000115 
C10   C     0.30163580978884 0.53318884962340 0.67272186013042 
C11   C     0.38975881030286 0.37460071098057 0.62689924003671 
C12   C     0.61769392953927 0.29000634914100 0.57372707995103 
C13   C     0.74648486025492 0.37847366021661 0.56507968014950 
C14   C     0.82487062019410 0.08959526059635 0.92211752974469 
C15   C     0.93161752966649 0.69421674988899 0.60648611033395 
C16   C     0.67139782001509 0.71387317966997 0.90676365984709 
C17   C     0.98416135052165 0.89894394911850 0.66056336028171 
C18   C     0.98374892004142 0.17700986043356 0.80361822000025 
C19   C     0.93307046981022 0.23994642032961 0.88787160975937 
C20   C     0.64020404014916 0.74576097989399 0.99957894004169 
C21   C     0.78742665993376 0.12464572061670 0.01599521027009 
C22   C     0.69574260021828 0.95688421989719 0.05416100012118 
