data_stdin
_audit_creation_method 'critic2'
_audit_creation_date 2023-8-11
_chemical_formula_sum 'C22 H14'
_cell_formula_units_Z 4
_cell_length_a         5.3968049849
_cell_length_b        15.2581946108
_cell_length_c        17.7076601560
_cell_angle_alpha        90.0001
_cell_angle_beta        77.4518
_cell_angle_gamma        89.9990
_cell_volume          1423.316144
_space_group_crystal_system monoclinic
_space_group_IT_number 14
_space_group_name_H-M_alt 'P2_1/c'
_space_group_name_Hall '-P 2ybc'
loop_
_symmetry_equiv_pos_site_id
_symmetry_equiv_pos_as_xyz
 1 'x,y,z'
 2 '-x,-y,-z'
 3 '-x,-1/2+y,-1/2-z'
 4 'x,-1/2-y,-1/2+z'
loop_
_atom_site_label
_atom_site_type_symbol
_atom_site_fract_x
_atom_site_fract_y
_atom_site_fract_z
H1    H     0.50529246018713 0.52138738971130 0.37164775988547 
H2    H     0.56201506036790 0.42682671999983 0.47836556006681 
H3    H     0.96480864010370 0.34470694006405 0.47104913981030 
H4    H     0.29694516983184 0.34810713008313 0.34851469018330 
H5    H     0.43556113956032 0.39112774025126 0.21462671000247 
H6    H     0.33978067934178 0.46057602032697 0.09815524010841 
H7    H     0.06967479038276 0.54662041994064 0.03653163994522 
H8    H     0.85667142948575 0.64061879984692 0.36969809009315 
H9    H     0.68607046057492 0.63887423998785 0.04283131983236 
H10   H     0.33024399030209 0.71987867027112 0.11691298022890 
H11   H     0.09941687994070 0.78397839981017 0.23988722998671 
H12   H     0.67976832994729 0.72969273009548 0.48301828997857 
H13   H     0.09042699917782 0.82191406975159 0.37317505014166 
H14   H     0.28324425002163 0.81765662016429 0.48855218009031 
C1    C     0.68380701924792 0.48680547014404 0.36715494978219 
C2    C     0.87600357013574 0.49548375028483 0.29893265023067 
C3    C     0.84942696070419 0.55043414974520 0.23403330995335 
C4    C     0.66990607966359 0.62141299992241 0.23777610996235 
C5    C     0.71517647095303 0.43325954975880 0.42737003981420 
C6    C     0.09464846036243 0.44027026970771 0.29172368977305 
C7    C     0.00519836919988 0.52921960000244 0.16048451022535 
C8    C     0.56741905031807 0.67306653990168 0.30653953997503 
C9    C     0.59891809946736 0.64732307996038 0.16807585983797 
C10   C     0.94152174021611 0.38554388981438 0.42263347022226 
C11   C     0.12638277070147 0.38808881023358 0.35519158998832 
C12   C     0.26920179034555 0.43259665978204 0.21897076025998 
C13   C     0.21692934032871 0.47163381027831 0.15489288006892 
C14   C     0.35609165983527 0.73007712005718 0.30710631000937 
C15   C     0.94870705908461 0.56468697990842 0.09195774025819 
C16   C     0.68327922026046 0.67716282983082 0.37098439982101 
C17   C     0.74036451056169 0.61694687992002 0.09550770024894 
C18   C     0.38944048011843 0.70527360982111 0.17056095020429 
C19   C     0.26257746962840 0.74162156979451 0.23837685020935 
C20   C     0.58423398982949 0.72830840019492 0.43482158993413 
C21   C     0.25356931919374 0.78014728013091 0.37406569990925 
C22   C     0.36344583911272 0.77863397992776 0.43757190002915 
