data_stdin
_audit_creation_method 'critic2'
_audit_creation_date 2023-8-11
_chemical_formula_sum 'C22 H14'
_cell_formula_units_Z 8
_cell_length_a        20.8273719807
_cell_length_b        11.3073243010
_cell_length_c        14.4924459781
_cell_angle_alpha        90.0002
_cell_angle_beta        58.1837
_cell_angle_gamma        90.0009
_cell_volume          2900.170557
_space_group_crystal_system monoclinic
_space_group_IT_number 15
_space_group_name_H-M_alt 'C2/c'
_space_group_name_Hall '-C 2yc'
loop_
_symmetry_equiv_pos_site_id
_symmetry_equiv_pos_as_xyz
 1 'x,y,z'
 2 '-x,-y,-z'
 3 '-x,y,-1/2-z'
 4 'x,-y,-1/2+z'
 5 '-1/2+x,-1/2+y,z'
 6 '-1/2-x,-1/2-y,-z'
 7 '-1/2-x,-1/2+y,-1/2-z'
 8 '-1/2+x,-1/2-y,-1/2+z'
loop_
_atom_site_label
_atom_site_type_symbol
_atom_site_fract_x
_atom_site_fract_y
_atom_site_fract_z
H1    H     0.31672450006211 0.21466568970940 0.48674424970071 
H2    H     0.21435938003289 0.07385851005080 0.53390730983446 
H3    H     0.23749381998105 0.85701373971268 0.52655970027178 
H4    H     0.36776179997106 0.78367096015208 0.45739957992506 
H5    H     0.50251799995378 0.81989648024942 0.37479628011088 
H6    H     0.60917391029295 0.96064541007243 0.28054636976863 
H7    H     0.65616140010134 0.15656006990404 0.22183613023194 
H8    H     0.35782506983634 0.18850537039575 0.62861403028537 
H9    H     0.63418002980321 0.37279417032758 0.22179278013404 
H10   H     0.55429543005916 0.54280606976080 0.29919467011997 
H11   H     0.43677827018378 0.63621377020092 0.44589114993712 
H12   H     0.25713731018876 0.28914496990278 0.79176113985724 
H13   H     0.32118468991861 0.62154696011453 0.62275175034742 
H14   H     0.23450177990066 0.50464234985398 0.78827929019397 
C1    C     0.32806197023880 0.12056381014117 0.48344659972242 
C2    C     0.40244642009022 0.08226035980591 0.44801063012587 
C3    C     0.46533496019398 0.16358091970018 0.41123984008340 
C4    C     0.45807985985350 0.28937579991651 0.43166116978563 
C5    C     0.27022011033173 0.04148542978737 0.51018237974332 
C6    C     0.41662114980002 0.95756266009086 0.43523697002175 
C7    C     0.53915973020891 0.11719553976029 0.34118892972707 
C8    C     0.39642554007932 0.34530004957696 0.52795535018222 
C9    C     0.51800496968478 0.36381152980204 0.35596077038358 
C10   C     0.28361690024461 0.91875971007192 0.50403531994499 
C11   C     0.35575400009455 0.87818943996492 0.46699526037526 
C12   C     0.49243355990588 0.91494705004080 0.38172537002105 
C13   C     0.55134449012175 0.99240887982961 0.33150147998900 
C14   C     0.38777450025748 0.47108807984934 0.53018985962712 
C15   C     0.60068338030344 0.19467970005718 0.27647160980329 
C16   C     0.34864742972500 0.28265242985902 0.62563805023674 
C17   C     0.58879785000730 0.31373703992660 0.27730783037306 
C18   C     0.50822925001470 0.48908432983002 0.36109521983076 
C19   C     0.44363698974346 0.54056864037834 0.44216337008599 
C20   C     0.29209084017597 0.33907180014741 0.71732818988152 
C21   C     0.32720723995015 0.52591252962082 0.62352078988100 
C22   C     0.27954629968753 0.46141647009329 0.71571168039839 
