data_stdin
_audit_creation_method 'critic2'
_audit_creation_date 2023-8-11
_chemical_formula_sum 'C22 H14'
_cell_formula_units_Z 4
_cell_length_a        12.8801146401
_cell_length_b        14.1922395001
_cell_length_c         7.7466459105
_cell_angle_alpha        90.0007
_cell_angle_beta        90.0000
_cell_angle_gamma        89.9997
_cell_volume          1416.068836
_space_group_crystal_system orthorhombic
_space_group_IT_number 29
_space_group_name_H-M_alt 'Pca2_1'
_space_group_name_Hall 'P 2c -2ac'
loop_
_symmetry_equiv_pos_site_id
_symmetry_equiv_pos_as_xyz
 1 'x,y,z'
 2 '-x,-y,-1/2+z'
 3 '-1/2-x,y,-1/2+z'
 4 '-1/2+x,-y,z'
loop_
_atom_site_label
_atom_site_type_symbol
_atom_site_fract_x
_atom_site_fract_y
_atom_site_fract_z
H1    H     0.94014050032674 0.73884049025458 0.00769790049145 
H2    H     0.85108377984068 0.84952971035225 0.19958365951747 
H3    H     0.94192122005969 0.99474594967502 0.30484671952626 
H4    H     0.12723303005293 0.01868180973638 0.23169457060613 
H5    H     0.28861261015718 0.96374827965458 0.10070600938359 
H6    H     0.38690802034732 0.83228227974460 0.96934961037131 
H7    H     0.39380334985819 0.67560639996790 0.85208168941340 
H8    H     0.97988388978291 0.83988383972090 0.72242845036889 
H9    H     0.30459460002398 0.53248453969677 0.74325050024157 
H10   H     0.14987222973218 0.45452526005346 0.64175501054061 
H11   H     0.96670277022378 0.46058793978068 0.54567682969523 
H12   H     0.81869829021006 0.85431336987783 0.55735695008751 
H13   H     0.81746753031329 0.55545744968995 0.46704778040580 
H14   H     0.73198643970372 0.71126238973712 0.43536724938168 
C1    C     0.98023350983731 0.80224948009925 0.04934978019234 
C2    C     0.08433401967590 0.81682669012750 0.99638056025232 
C3    C     0.14043761999062 0.74996746034881 0.88957410025670 
C4    C     0.09263801969122 0.67875548004824 0.78279602975712 
C5    C     0.92993435017344 0.86482281968081 0.15754071980915 
C6    C     0.13855802002304 0.89541145974078 0.06939425985102 
C7    C     0.25072150965635 0.75162324999823 0.89971551002310 
C8    C     0.99245857036788 0.68832611974217 0.69780885018612 
C9    C     0.15201328018773 0.59699658995307 0.74248997941140 
C10   C     0.98138447997563 0.94599188021257 0.21837560975235 
C11   C     0.08431184967339 0.96000594018144 0.17574484000879 
C12   C     0.24817228979088 0.90300260966561 0.04710809051695 
C13   C     0.30247645973948 0.83075164982045 0.97396527973786 
C14   C     0.94705750969476 0.60819415021675 0.61447871007355 
C15   C     0.30961965988287 0.67362096015682 0.83930226063007 
C16   C     0.94314755002349 0.77665378998790 0.67255770936206 
C17   C     0.26053481021807 0.59533764981083 0.77644988037422 
C18   C     0.10370078029004 0.51797074966295 0.66098481943111 
C19   C     0.00296767990305 0.52137215970519 0.60682716956733 
C20   C     0.85191629028071 0.78480776023628 0.57965354988020 
C21   C     0.85100548027562 0.61778917969003 0.52688289049200 
C22   C     0.80355544973051 0.70445772026898 0.50922988941054 
