data_stdin
_audit_creation_method 'critic2'
_audit_creation_date 2023-8-11
_chemical_formula_sum 'C22 H14'
_cell_formula_units_Z 4
_cell_length_a        29.2103828142
_cell_length_b         4.8768828128
_cell_length_c        10.2637491613
_cell_angle_alpha        89.9961
_cell_angle_beta        85.5564
_cell_angle_gamma        90.0184
_cell_volume          1457.733495
_space_group_crystal_system triclinic
_space_group_IT_number 1
_space_group_name_H-M_alt 'P1'
_space_group_name_Hall 'P 1'
loop_
_symmetry_equiv_pos_site_id
_symmetry_equiv_pos_as_xyz
 1 'x,y,z'
 2 '-1/2+x,-1/2+y,z'
loop_
_atom_site_label
_atom_site_type_symbol
_atom_site_fract_x
_atom_site_fract_y
_atom_site_fract_z
H1    H     0.31249982293079 0.96771107788298 0.35181302335430 
H2    H     0.68751597417813 0.96754835178298 0.64815733565900 
H3    H     0.23316912613538 0.91847713631767 0.44205200140870 
H4    H     0.76684214376384 0.91841412748225 0.55791674807880 
H5    H     0.18358525047361 0.54242700257904 0.36504209047526 
H6    H     0.81640185460115 0.54244204108334 0.63497308689926 
H7    H     0.21425071646058 0.23586516273128 0.18502489420799 
H8    H     0.78571683769729 0.23585526086413 0.81502153567236 
H9    H     0.27412350022864 0.11240678732458 0.01940348906647 
H10   H     0.72583787413238 0.11237195715530 0.98067875497799 
H11   H     0.34704020813721 0.23129819960472 0.89361616788344 
H12   H     0.65293410345554 0.23123236687078 0.10646787765734 
H13   H     0.41302561768322 0.52902186141679 0.85622411161473 
H14   H     0.58696705357656 0.52885480743432 0.14381505675303 
H15   H     0.35572184456652 0.51677761047633 0.41848803426175 
H16   H     0.64428688798236 0.51661675476244 0.58154856783806 
H17   H     0.46092419759005 0.91623963137920 0.92557599469335 
H18   H     0.53909173672875 0.91599417819265 0.07440421219947 
H19   H     0.47861877626845 0.25457110216032 0.09131991057649 
H20   H     0.52142034534431 0.25424115376466 0.90861177347956 
H21   H     0.47695550692794 0.38714012263389 0.32392296435587 
H22   H     0.52307174747142 0.38664175338736 0.67597717994016 
H23   H     0.36819172191063 0.57914753087297 0.64958003132037 
H24   H     0.63181230687149 0.57880973449283 0.35045634978892 
H25   H     0.45794847601990 0.26151730369053 0.55233366857229 
H26   H     0.54205134810070 0.26086224150061 0.44758849649492 
H27   H     0.41789915454751 0.96162534761245 0.72022886860074 
H28   H     0.58209368222985 0.96104096019128 0.27974834464959 
C1    C     0.29192754228809 0.80076903070838 0.31772857460185 
C2    C     0.70807841745962 0.80064873496103 0.68226333730081 
C3    C     0.31117626780754 0.62248566547424 0.21909345484179 
C4    C     0.68881833448335 0.62235793662869 0.78092386405877 
C5    C     0.35743210682705 0.65557207535736 0.15817443384023 
C6    C     0.64256622475497 0.65540610291252 0.84184290762260 
C7    C     0.39278829025884 0.81941708042047 0.21079458562667 
C8    C     0.60721993497106 0.81917931689857 0.78919830700666 
C9    C     0.24688602378865 0.77423985007844 0.36807781044844 
C10   C     0.75311675902252 0.77417135717262 0.63191159310041 
C11   C     0.28140861724534 0.42303610007388 0.16790085605688 
C12   C     0.71857207321845 0.42294899449484 0.83213604707004 
C13   C     0.36723255805039 0.53554148478655 0.03268382743448 
C14   C     0.63275899161034 0.53539618192961 0.96735262707665 
C15   C     0.39787432119052 0.86006092246584 0.34919874779192 
C16   C     0.60213351196425 0.85975699350662 0.65078825583069 
C17   C     0.42724923676243 0.93442715057833 0.12151092274428 
C18   C     0.57276683032352 0.93416036260467 0.87846679587783 
C19   C     0.21873728741042 0.56551763024421 0.32307863674095 
C20   C     0.78125156346390 0.56549105881840 0.67693496526997 
C21   C     0.23582413232512 0.39356689224725 0.22415054810779 
C22   C     0.76415361625048 0.39352813320950 0.77588357977555 
C23   C     0.29662839976347 0.26925010517197 0.05447134362263 
C24   C     0.70334320040558 0.26917674909678 0.94559128677151 
C25   C     0.33709021303442 0.33369786834916 0.98585898287000 
C26   C     0.66288846070846 0.33360632191642 0.01420435785242 
C27   C     0.42917831590101 0.06368648633709 0.38930716030314 
C28   C     0.57083167926589 0.06325719506211 0.61064658122845 
C29   C     0.40630883006424 0.62333638225961 0.95210249593259 
C30   C     0.59368900721328 0.62315556697042 0.04792257660302 
C31   C     0.37702008218576 0.68559357059315 0.44706944844349 
C32   C     0.62298505241567 0.68532172822233 0.55294328629953 
C33   C     0.43318675285661 0.83361253082870 0.99117053225394 
C34   C     0.56682385207578 0.83338038982559 0.00882366334614 
C35   C     0.45643344363227 0.14630404499599 0.16434737841155 
C36   C     0.54359340263435 0.14596401646344 0.83559663919849 
C37   C     0.45586601323446 0.21856192624561 0.29287799815107 
C38   C     0.54415544783240 0.21813155272748 0.70705050484174 
C39   C     0.38437390197686 0.71981819723495 0.57750005839903 
C40   C     0.61562903070192 0.71944995078731 0.42251070705531 
C41   C     0.43498230051930 0.10023251027423 0.52380734886911 
C42   C     0.56502020982249 0.09969133632964 0.47614163059181 
C43   C     0.41284605282373 0.93278295598931 0.61712394056076 
C44   C     0.58715195640297 0.93226956532435 0.38285435401673 
