data_stdin
_audit_creation_method 'critic2'
_audit_creation_date 2023-8-11
_chemical_formula_sum 'C22 H14'
_cell_formula_units_Z 4
_cell_length_a        11.3217990416
_cell_length_b         9.9639015003
_cell_length_c        13.1937327449
_cell_angle_alpha        89.9998
_cell_angle_beta        73.7646
_cell_angle_gamma        89.9994
_cell_volume          1429.020918
_space_group_crystal_system monoclinic
_space_group_IT_number 14
_space_group_name_H-M_alt 'P2_1/c'
_space_group_name_Hall '-P 2ybc'
loop_
_symmetry_equiv_pos_site_id
_symmetry_equiv_pos_as_xyz
 1 'x,y,z'
 2 '-x,-y,-z'
 3 '-x,-1/2+y,-1/2-z'
 4 'x,-1/2-y,-1/2+z'
loop_
_atom_site_label
_atom_site_type_symbol
_atom_site_fract_x
_atom_site_fract_y
_atom_site_fract_z
H1    H     0.28659227968304 0.36445827018494 0.34530379003720 
H2    H     0.18022437985643 0.57751393017942 0.34341212011491 
H3    H     0.95172231022628 0.58333851965921 0.37776576038266 
H4    H     0.83414264993590 0.37084497044818 0.40396874024585 
H5    H     0.82925875044099 0.12415209979982 0.40404779996050 
H6    H     0.94334621990210 0.91083137969004 0.36039692990505 
H7    H     0.13508226019285 0.78944736015615 0.30690973981868 
H8    H     0.20018594969720 0.27396787975770 0.54206273998796 
H9    H     0.36320746013127 0.78136151975880 0.27363176001955 
H10   H     0.55135987963965 0.88134270042480 0.28821821039332 
H11   H     0.66204303022737 0.05820751047825 0.35559121993985 
H12   H     0.30363266983355 0.41623967029516 0.64349169033299 
H13   H     0.65336896006762 0.25169180004618 0.47262191989811 
H14   H     0.53240441986604 0.41460239009239 0.60305506991894 
C1    C     0.18739879996985 0.36457337997947 0.36000694999286 
C2    C     0.12274165994320 0.24119901035052 0.37914317994034 
C3    C     0.18403394007668 0.11276249028602 0.37658403982665 
C4    C     0.30763551033192 0.09579709968208 0.38483807012441 
C5    C     0.12736234983990 0.48482080034323 0.35851075033585 
C6    C     0.99323576022430 0.24437058996336 0.39037827999844 
C7    C     0.12022726995576 0.99676380010138 0.35722104977154 
C8    C     0.36674509992929 0.18399611002685 0.44366427038040 
C9    C     0.37388165990880 0.97937486964438 0.33841282993658 
C10   C     0.99875403000079 0.48805503952901 0.37728988995945 
C11   C     0.93315675985533 0.36961856949843 0.39287440000178 
C12   C     0.92846917022591 0.12136562003202 0.39128053972726 
C13   C     0.99111683006159 0.00306393973590 0.36922719038999 
C14   C     0.49645797002887 0.17291042019326 0.42933000024721 
C15   C     0.18583834028375 0.87549167981849 0.32377226987549 
C16   C     0.29982372032988 0.27149130990083 0.52411330020176 
C17   C     0.31074357985500 0.87034914972496 0.30701081981297 
C18   C     0.50285942962606 0.97001588970165 0.32674081024531 
C19   C     0.56352145027040 0.06699521021551 0.36562997984393 
C20   C     0.35784731986819 0.35170362995789 0.58106221982023 
C21   C     0.55439926010498 0.26028233953486 0.48539117996579 
C22   C     0.48703408049457 0.34933799020085 0.55933867974608 
