data_stdin
_audit_creation_method 'critic2'
_audit_creation_date 2023-8-11
_chemical_formula_sum 'C22 H14'
_cell_formula_units_Z 4
_cell_length_a        15.2984093749
_cell_length_b         4.5066947826
_cell_length_c        20.4535877991
_cell_angle_alpha        90.0265
_cell_angle_beta        84.6634
_cell_angle_gamma        89.9605
_cell_volume          1404.065006
_space_group_crystal_system triclinic
_space_group_IT_number 2
_space_group_name_H-M_alt 'P-1'
_space_group_name_Hall '-P 1'
loop_
_symmetry_equiv_pos_site_id
_symmetry_equiv_pos_as_xyz
 1 'x,y,z'
 2 '-x,-y,-z'
loop_
_atom_site_label
_atom_site_type_symbol
_atom_site_fract_x
_atom_site_fract_y
_atom_site_fract_z
H1    H     0.85699882021468 0.41649110006601 0.80867191980586 
H2    H     0.14281426029471 0.91653532091652 0.69139074991842 
H3    H     0.01601410990401 0.40446009988466 0.78334630977578 
H4    H     0.98380935017171 0.90391308064462 0.71669855987091 
H5    H     0.10838936967434 0.05261143923716 0.84281561004166 
H6    H     0.89169438984871 0.55162030055036 0.65715714983253 
H7    H     0.03833835020222 0.75444089892860 0.93473258990664 
H8    H     0.96201474034971 0.25368804008211 0.56514664980700 
H9    H     0.91076708016528 0.60053828930625 0.00445933008542 
H10   H     0.08967282983619 0.10033426962846 0.49538230992144 
H11   H     0.75311616982073 0.66791182989849 0.04260681976127 
H12   H     0.24729483972601 0.16819533012687 0.45728797995326 
H13   H     0.61723325977996 0.92129357951425 0.03719834996163 
H14   H     0.38296722010666 0.42179565000906 0.46275737011445 
H15   H     0.80645612993094 0.91125748094427 0.77092982009204 
H16   H     0.19361657978966 0.41154660996019 0.72903673980863 
H17   H     0.52365815021657 0.27649694892362 0.98239027991758 
H18   H     0.47634863979743 0.77694504027339 0.51766232017408 
H19   H     0.49599605023574 0.57683280899831 0.88934580983190 
H20   H     0.50379212022297 0.07759955061164 0.61077438019062 
H21   H     0.52775138002703 0.70329255907895 0.77172084023516 
H22   H     0.47197441003427 0.20375565034490 0.72845428017908 
H23   H     0.81657256990911 0.95667106092570 0.65124103017986 
H24   H     0.18352913977096 0.45679442101539 0.84872135983463 
H25   H     0.60477409991901 0.59003561985005 0.66653859977091 
H26   H     0.39517967018021 0.08970594914967 0.83359734005426 
H27   H     0.71895088001482 0.30474699104804 0.59739436990685 
H28   H     0.28112443998505 0.80433761961307 0.90266869011450 
C1    C     0.89538856030262 0.26138343958587 0.83482519005475 
C2    C     0.10455094976263 0.76125700078001 0.66519173015967 
C3    C     0.85216632008779 0.07450388991892 0.88333347976564 
C4    C     0.14792001974983 0.57447541978606 0.61664229996642 
C5    C     0.75761296990895 0.07597383073868 0.89989516999720 
C6    C     0.24248044982336 0.57619304921496 0.60009347007260 
C7    C     0.69404697996687 0.21132496918276 0.86089578007662 
C8    C     0.30596769981446 0.71159694067870 0.63913197006255 
C9    C     0.98551056013163 0.25602623999473 0.82074087022475 
C10   C     0.01442921984293 0.75558775932576 0.67926651004540 
C11   C     0.90662060021308 0.89892739008642 0.92163065978399 
C12   C     0.09358355966808 0.39874140022142 0.57830124011963 
C13   C     0.72597225017957 0.95256297937403 0.96172657006812 
C14   C     0.27420139993100 0.45286915050471 0.53823404022302 
C15   C     0.70337463999263 0.23812987042365 0.78975247008809 
C16   C     0.29661843991875 0.73830957988010 0.71028444988223 
C17   C     0.61281150019833 0.30680546091056 0.89394501976420 
C18   C     0.38716863976438 0.80716993063844 0.60611324978162 
C19   C     0.03773619976773 0.06450352889570 0.85519647980699 
C20   C     0.96233846987075 0.56384362939360 0.64477319008357 
C21   C     0.99861761011895 0.89403350905202 0.90566947023329 
C22   C     0.00158772019602 0.39352497965044 0.59425885989504 
C23   C     0.86849539032525 0.73890943040080 0.97720877994222 
C24   C     0.13182143989773 0.23883026965175 0.52268414017772 
C25   C     0.78178522015582 0.77403552016791 0.99781478007599 
C26   C     0.21851008004415 0.27420103035420 0.50209642024326 
C27   C     0.64283539028231 0.41939475954143 0.75817415003380 
C28   C     0.35709220001145 0.91948597003968 0.74191713984952 
C29   C     0.63943768023087 0.01694523913157 0.98961634020015 
C30   C     0.36069408981639 0.51734519961124 0.51036724982869 
C31   C     0.76416419007215 0.06815122894328 0.74874642017607 
C32   C     0.23588529001751 0.56833946998973 0.75124283021938 
C33   C     0.58741578028884 0.20929629909557 0.95901281022419 
C34   C     0.41262257999128 0.70971422046629 0.54102499991094 
C35   C     0.55456083012595 0.49068040933890 0.86118080975843 
C36   C     0.44530112978251 0.99120113057335 0.63892653991312 
C37   C     0.57131824971919 0.55820115055164 0.79622148021812 
C38   C     0.42851295016239 0.05854834909903 0.70390769978356 
C39   C     0.76938895029464 0.09180601976037 0.68116656986855 
C40   C     0.23067918971181 0.59186306960125 0.81883062004216 
C41   C     0.65065553001588 0.44462881100788 0.68884430981397 
C42   C     0.34931764970038 0.94447206898226 0.81125511000253 
C43   C     0.71343414983450 0.28562709055470 0.65066099986673 
C44   C     0.28660643020712 0.78543613925565 0.84939479983760 
