data_stdin
_audit_creation_method 'critic2'
_audit_creation_date 2023-8-11
_chemical_formula_sum 'C22 H14'
_cell_formula_units_Z 8
_cell_length_a        26.6496374765
_cell_length_b         5.3353215298
_cell_length_c        20.2694458413
_cell_angle_alpha        89.9924
_cell_angle_beta        89.8097
_cell_angle_gamma        89.9867
_cell_volume          2881.982678
_space_group_crystal_system monoclinic
_space_group_IT_number 15
_space_group_name_H-M_alt 'C2/c'
_space_group_name_Hall '-C 2yc'
loop_
_symmetry_equiv_pos_site_id
_symmetry_equiv_pos_as_xyz
 1 'x,y,z'
 2 '-x,-y,-z'
 3 '-x,y,-1/2-z'
 4 'x,-y,-1/2+z'
 5 '-1/2+x,-1/2+y,z'
 6 '-1/2-x,-1/2-y,-z'
 7 '-1/2-x,-1/2+y,-1/2-z'
 8 '-1/2+x,-1/2-y,-1/2+z'
loop_
_atom_site_label
_atom_site_type_symbol
_atom_site_fract_x
_atom_site_fract_y
_atom_site_fract_z
H1    H     0.30091542005024 0.18275153977610 0.58343214021110 
H2    H     0.21901847010012 0.30422995031120 0.53913283009096 
H3    H     0.17842996004730 0.70287024931217 0.57340343991025 
H4    H     0.21820408998591 0.96230044044440 0.66164202018866 
H5    H     0.28186496997085 0.01725683067484 0.74520184020374 
H6    H     0.35213715994544 0.83944755997170 0.80864023984431 
H7    H     0.41424386010751 0.51533234049770 0.82606840002131 
H8    H     0.36035328993286 0.54070355962898 0.54130640985025 
H9    H     0.45887304006817 0.13334515969221 0.78878479990548 
H10   H     0.47570430010029 0.82002653037264 0.70516588986251 
H11   H     0.47469119010111 0.68769380046019 0.58832595004066 
H12   H     0.37290939011062 0.44872618048671 0.42447084978714 
H13   H     0.45698698004801 0.78678396978135 0.47429780997378 
H14   H     0.41938964998981 0.06225384953644 0.38908662008103 
C1    C     0.28421391984662 0.35910690956288 0.59883758983461 
C2    C     0.30930038993808 0.50882554917628 0.64608321991224 
C3    C     0.35697243008499 0.43779346001650 0.67537316016153 
C4    C     0.39196348013460 0.25962848015044 0.64749846987219 
C5    C     0.23797063994862 0.42715945996397 0.57384477007821 
C6    C     0.28315519006802 0.72382471084852 0.67081683008705 
C7    C     0.36826165006378 0.54257117926006 0.73828243997867 
C8    C     0.39800116988858 0.20796411938407 0.57737178012512 
C9    C     0.42568599996900 0.13642258940169 0.69119665005748 
C10   C     0.21457451003302 0.65090612986850 0.59423795017570 
C11   C     0.23671006989396 0.79530339968804 0.64254979985207 
C12   C     0.30157440011457 0.85166848995871 0.72759187012764 
C13   C     0.34082283986661 0.75409040011606 0.76219480013223 
C14   C     0.42803085984031 0.99915306972886 0.55665441003978 
C15   C     0.40658636003247 0.43457944065715 0.77777667004654 
C16   C     0.37985838994253 0.36997099924938 0.52742058010881 
C17   C     0.43184664982293 0.22580737945839 0.75677127007272 
C18   C     0.45419362008274 0.92556242062291 0.66897567978127 
C19   C     0.45375443987071 0.85188138943129 0.60457100015161 
C20   C     0.38739282999958 0.31889882072037 0.46123540021730 
C21   C     0.43438563011284 0.94811873984095 0.48857289986501 
C22   C     0.41389629989713 0.10322962065783 0.44125845995921 
