data_stdin
_audit_creation_method 'critic2'
_audit_creation_date 2023-8-11
_chemical_formula_sum 'C22 H14'
_cell_formula_units_Z 8
_cell_length_a         8.9950342101
_cell_length_b        41.3770109615
_cell_length_c         7.6823486023
_cell_angle_alpha        90.0072
_cell_angle_beta        89.9997
_cell_angle_gamma        90.0006
_cell_volume          2859.275090
_space_group_crystal_system monoclinic
_space_group_IT_number 9
_space_group_name_H-M_alt 'Cc'
_space_group_name_Hall 'C -2yc'
loop_
_symmetry_equiv_pos_site_id
_symmetry_equiv_pos_as_xyz
 1 'x,y,z'
 2 '-x,y,-1/2+z'
 3 '-1/2+x,-1/2+y,-1/2+z'
 4 '-1/2-x,-1/2+y,z'
loop_
_atom_site_label
_atom_site_type_symbol
_atom_site_fract_x
_atom_site_fract_y
_atom_site_fract_z
H1    H     0.13237884867295 0.13452183116400 0.99797661791988 
H2    H     0.86762755473939 0.86547221141300 0.99811762164722 
H3    H     0.93231434283018 0.17373775932208 0.04491169261400 
H4    H     0.06766723040246 0.82625056231499 0.04497960605380 
H5    H     0.94911711842250 0.22914868164499 0.91864419508496 
H6    H     0.05082102176455 0.77084022420064 0.91862568479525 
H7    H     0.17744905082366 0.24534481557149 0.75870679933609 
H8    H     0.82247305740744 0.75465277147929 0.75867279606202 
H9    H     0.42462218168822 0.23390916915313 0.65147709735317 
H10   H     0.57528844014513 0.76609492156537 0.65151465354409 
H11   H     0.65086808325332 0.19938801810709 0.67037585130524 
H12   H     0.34906442660124 0.80062158678440 0.67050524068096 
H13   H     0.77522641420394 0.15307497110323 0.78017975035264 
H14   H     0.22474880661298 0.84694169756518 0.78034814869347 
H15   H     0.13362422027785 0.12203985252156 0.68280645324556 
H16   H     0.86636848651029 0.87795160097826 0.68297113895787 
H17   H     0.76986523318772 0.09793800952623 0.90910939446869 
H18   H     0.23015940480374 0.90207885194337 0.90934025814365 
H19   H     0.63708629308904 0.05213889891481 0.01160951130470 
H20   H     0.36298321421670 0.94787291408846 0.01189892425250 
H21   H     0.40484423583160 0.01954276094806 0.02582324196806 
H22   H     0.59524897344565 0.98046127006610 0.02612931180271 
H23   H     0.92540259690432 0.08485010437360 0.63561518954233 
H24   H     0.07461159856855 0.91513308784658 0.63579205233486 
H25   H     0.15319829077471 0.01114010607570 0.92656923914266 
H26   H     0.84689073022374 0.98885766423001 0.92681829113713 
H27   H     0.92923628560813 0.02965914753280 0.76268933092684 
H28   H     0.07081999830708 0.97032678310935 0.76289358309772 
C1    C     0.14155342281650 0.15834347926517 0.94002798994156 
C2    C     0.85843228043647 0.84165114055584 0.94013548713712 
C3    C     0.27120630654019 0.16618483805826 0.84371923944626 
C4    C     0.72876736960100 0.83381432539350 0.84382670232377 
C5    C     0.39655653494956 0.14422044564804 0.82439226641437 
C6    C     0.60342958783787 0.85578275002664 0.82454400740728 
C7    C     0.39357930944887 0.10983718350433 0.85910979239779 
C8    C     0.60643435968798 0.89016593497655 0.85930195224985 
C9    C     0.02862013433601 0.18043849385112 0.96712254741782 
C10   C     0.97135316168782 0.81955257223348 0.96718772004823 
C11   C     0.28382465731632 0.19878173578941 0.78208849794157 
C12   C     0.71612395057502 0.80121835157871 0.78214725689745 
C13   C     0.53609105184877 0.15847390882878 0.78215590605570 
C14   C     0.46388204354858 0.84153370174183 0.78230527211441 
C15   C     0.26468017830426 0.08900706897785 0.83798530445400 
C16   C     0.73534671540337 0.91099166908301 0.83818832324138 
C17   C     0.53011453806784 0.09438389380947 0.90274581957986 
C18   C     0.46991395859563 0.90562420109923 0.90296731772384 
C19   C     0.03879017104965 0.21189007342155 0.89794298771836 
C20   C     0.96115932739894 0.78810192874163 0.89795808762599 
C21   C     0.16508975319475 0.22078259044729 0.80778438937532 
C22   C     0.83484918033255 0.77921407925010 0.80779288736213 
C23   C     0.41981030619547 0.20967468239067 0.70662433870508 
C24   C     0.58012206242291 0.79032937474111 0.70669166508062 
C25   C     0.54331224117493 0.19065099127811 0.71557139952991 
C26   C     0.45663191489760 0.80935643131002 0.71568771443914 
C27   C     0.27066794388242 0.05628362319888 0.89898078745511 
C28   C     0.72938682607144 0.94371623160729 0.89921506653065 
C29   C     0.67037708559542 0.14109951442809 0.80909452062452 
C30   C     0.32960966291206 0.85891322863525 0.80927071215560 
C31   C     0.13728413592965 0.09817598634833 0.74108101877034 
C32   C     0.86272911623234 0.90181658045535 0.74126551810545 
C33   C     0.66745643879117 0.11069858902713 0.87830143038577 
C34   C     0.33255735567794 0.88931457634086 0.87851157885184 
C35   C     0.53139015900889 0.06199635545435 0.96698328850129 
C36   C     0.46866757720675 0.93801178001808 0.96724538130322 
C37   C     0.40447620215060 0.04401962772645 0.97354086081977 
C38   C     0.59559457349285 0.95598464841239 0.97380963421892 
C39   C     0.01994887658526 0.07725600426224 0.71385494849308 
C40   C     0.98007697694623 0.92273190726340 0.71404706742036 
C41   C     0.14685538722386 0.03560645262241 0.87437089485661 
C42   C     0.85320977734527 0.96438946615590 0.87460503701178 
C43   C     0.02290898288198 0.04581810455444 0.78391359153844 
C44   C     0.97713992432995 0.95417160298611 0.78412435626583 
