data_stdin
_audit_creation_method 'critic2'
_audit_creation_date 2023-8-11
_chemical_formula_sum 'C22 H14'
_cell_formula_units_Z 4
_cell_length_a        10.3007929718
_cell_length_b         5.1953142102
_cell_length_c        27.4921668465
_cell_angle_alpha        90.0000
_cell_angle_beta        85.3598
_cell_angle_gamma        89.9999
_cell_volume          1466.444483
_space_group_crystal_system monoclinic
_space_group_IT_number 14
_space_group_name_H-M_alt 'P2_1/c'
_space_group_name_Hall '-P 2ybc'
loop_
_symmetry_equiv_pos_site_id
_symmetry_equiv_pos_as_xyz
 1 'x,y,z'
 2 '-x,-y,-z'
 3 '-x,-1/2+y,-1/2-z'
 4 'x,-1/2-y,-1/2+z'
loop_
_atom_site_label
_atom_site_type_symbol
_atom_site_fract_x
_atom_site_fract_y
_atom_site_fract_z
H1    H     0.88864576960808 0.35309068917598 0.36536993006171 
H2    H     0.10416551021817 0.24275239945716 0.39073948989199 
H3    H     0.13422251013586 0.85406677975332 0.44251717012915 
H4    H     0.94048787026579 0.59671168071682 0.47249260998101 
H5    H     0.70622189046988 0.53545465091600 0.48210387981639 
H6    H     0.48585730980718 0.71402779093766 0.47365003016524 
H7    H     0.34739114040476 0.04590553067582 0.44482387011764 
H8    H     0.82509758998478 0.95547332058454 0.31070353009814 
H9    H     0.31633614997070 0.43059462071608 0.39263870004958 
H10   H     0.39669017007381 0.72457920934995 0.32926299015859 
H11   H     0.55593291976230 0.83082969020809 0.26009532014249 
H12   H     0.94591202963050 0.99899847013898 0.23106039000645 
H13   H     0.73251265971040 0.68944846906433 0.20313786001432 
H14   H     0.90555169042022 0.37251179010584 0.17688526000890 
C1    C     0.89951584042950 0.18281556002143 0.38760558987654 
C2    C     0.78804633015358 0.03344684976222 0.40231040001212 
C3    C     0.65806277989002 0.10070717017712 0.38968009992657 
C4    C     0.62990947033958 0.27224010954801 0.35061206001476 
C5    C     0.02114113039286 0.12100158062188 0.40213814983015 
C6    C     0.80421804975384 0.82564222022710 0.43553351998918 
C7    C     0.55144630009986 0.00330503016998 0.42044091991729 
C8    C     0.71076435955168 0.30315222968070 0.30513426991683 
C9    C     0.50877082017087 0.40551759991626 0.35497643005175 
C10   C     0.03792972013426 0.90369007093603 0.43169889006136 
C11   C     0.93054167959604 0.76005309953360 0.44824263016828 
C12   C     0.69224551044094 0.69892093913798 0.45823989988576 
C13   C     0.57084826985912 0.79491027044139 0.45296255011323 
C14   C     0.68205973969438 0.50633542025088 0.27249109002485 
C15   C     0.42616280971295 0.11781777988300 0.41965980014606 
C16   C     0.80700317035560 0.12181330011691 0.28831991989622 
C17   C     0.40869508007694 0.32694584035163 0.39058473986338 
C18   C     0.48601153044135 0.61331548042253 0.32277850994174 
C19   C     0.57303348967213 0.67063637069325 0.28422389013106 
C20   C     0.87451262045787 0.14497307025578 0.24298414010601 
C21   C     0.75568293979979 0.53106366045609 0.22693087012107 
C22   C     0.85061545986199 0.35361720028592 0.21222237999019 
