data_stdin
_audit_creation_method 'critic2'
_audit_creation_date 2023-8-11
_chemical_formula_sum 'C22 H14'
_cell_formula_units_Z 4
_cell_length_a         4.3363473105
_cell_length_b        21.1530466608
_cell_length_c        15.5337666629
_cell_angle_alpha        89.9996
_cell_angle_beta        84.5746
_cell_angle_gamma        89.9997
_cell_volume          1418.482064
_space_group_crystal_system monoclinic
_space_group_IT_number 14
_space_group_name_H-M_alt 'P2_1/c'
_space_group_name_Hall '-P 2ybc'
loop_
_symmetry_equiv_pos_site_id
_symmetry_equiv_pos_as_xyz
 1 'x,y,z'
 2 '-x,-y,-z'
 3 '-x,-1/2+y,-1/2-z'
 4 'x,-1/2-y,-1/2+z'
loop_
_atom_site_label
_atom_site_type_symbol
_atom_site_fract_x
_atom_site_fract_y
_atom_site_fract_z
H1    H     0.29967691973478 0.31974109006118 0.19777335005704 
H2    H     0.34480241981692 0.35280818020478 0.04683996975797 
H3    H     0.67993287901509 0.44440162023391 0.99739859002652 
H4    H     0.96286832896984 0.50281959023047 0.10457777007789 
H5    H     0.08252785929316 0.52125828984826 0.25134575010369 
H6    H     0.94961488937657 0.50289031995433 0.40838277005220 
H7    H     0.64301566087747 0.45146311981122 0.52385642979471 
H8    H     0.81424165991717 0.27466364008752 0.22522971976335 
H9    H     0.26803610907252 0.36811910006000 0.57654120020421 
H10   H     0.97761634025756 0.27398309991340 0.55161588000162 
H11   H     0.90847676927756 0.17724912011883 0.46662591022599 
H12   H     0.82788129912155 0.16894572984392 0.16090641013618 
H13   H     0.11169232116632 0.10717151993440 0.35242111975187 
H14   H     0.46790461914647 0.08434073011592 0.22151263015776 
C1    C     0.45367306933320 0.35856421981690 0.17787897002320 
C2    C     0.61701755931508 0.38955122017832 0.24055412020373 
C3    C     0.58349353972998 0.37281977981710 0.33177421019143 
C4    C     0.43883711020288 0.31564298999232 0.36754723016558 
C5    C     0.47708040084893 0.37756469987529 0.09246201030172 
C6    C     0.79584117020056 0.44401352016210 0.21250352987920 
C7    C     0.67658230988218 0.41900617977467 0.39089426022036 
C8    C     0.44310762952028 0.25446432010576 0.32472208976726 
C9    C     0.30042377883697 0.31795250020043 0.45441120017485 
C10   C     0.66483849953630 0.42940142992051 0.06476727973042 
C11   C     0.82026375992912 0.46199875005664 0.12430653989407 
C12   C     0.93418842909958 0.48198421983163 0.27421735021083 
C13   C     0.86490594074777 0.47127314006224 0.36049251980348 
C14   C     0.25317672969061 0.20432075994848 0.36228348968218 
C15   C     0.57186225950492 0.41499768003445 0.48033107998920 
C16   C     0.65188598012026 0.23909091009445 0.25191769000828 
C17   C     0.36774367059270 0.36879558011804 0.50951889974487 
C18   C     0.10174753077072 0.26815711982334 0.48788041006779 
C19   C     0.06626901954477 0.21435763988355 0.44156057011133 
C20   C     0.66083762081739 0.17939004023003 0.21573248967528 
C21   C     0.26348769043050 0.14386656982089 0.32316958007408 
C22   C     0.46230651109348 0.13123992988668 0.25058471011184 
