data_stdin
_audit_creation_method 'critic2'
_audit_creation_date 2023-8-11
_chemical_formula_sum 'C22 H14'
_cell_formula_units_Z 4
_cell_length_a         5.3562484056
_cell_length_b        32.5458433023
_cell_length_c         8.6559618043
_cell_angle_alpha        89.9982
_cell_angle_beta        76.9030
_cell_angle_gamma        89.9970
_cell_volume          1469.687765
_space_group_crystal_system monoclinic
_space_group_IT_number 9
_space_group_name_H-M_alt 'Cc'
_space_group_name_Hall 'C -2yc'
loop_
_symmetry_equiv_pos_site_id
_symmetry_equiv_pos_as_xyz
 1 'x,y,z'
 2 '-1/2+x,-1/2-y,-1/2+z'
 3 '-1/2+x,-1/2+y,z'
 4 'x,-y,-1/2+z'
loop_
_atom_site_label
_atom_site_type_symbol
_atom_site_fract_x
_atom_site_fract_y
_atom_site_fract_z
H1    H     0.01052043930593 0.65641669986312 0.00270733027503 
H2    H     0.81272526001984 0.70395816002603 0.21405748015733 
H3    H     0.41408267069976 0.74291369993497 0.19799801012513 
H4    H     0.25288954905440 0.73879540008108 0.95255995019896 
H5    H     0.29482056955934 0.71432288998925 0.68019377004241 
H6    H     0.55626363020202 0.67952735001113 0.44526300054939 
H7    H     0.93130977950666 0.64027063012932 0.31906010005789 
H8    H     0.93131598960774 0.35971084009039 0.81916970003883 
H9    H     0.64651793911813 0.60035396998181 0.00426096987811 
H10   H     0.30914484008590 0.59832513985611 0.33733188993221 
H11   H     0.30913407993264 0.40165495988771 0.83747409047325 
H12   H     0.56576535104798 0.56360626011396 0.49553062950597 
H13   H     0.60534876992636 0.53280213987591 0.74979773009137 
H14   H     0.64208418919287 0.55623227010487 0.23312455046497 
H15   H     0.39847812917654 0.51269801009219 0.01893613023545 
H16   H     0.02640862947573 0.51374912990913 0.24861461058283 
C1    C     0.83885721940822 0.67305376006194 0.99305441056772 
C2    C     0.74140576051650 0.66802762998758 0.85507954961005 
C3    C     0.86070759941887 0.64128585994964 0.72470006009498 
C4    C     0.03455792916001 0.60813694987552 0.73587571027020 
C5    C     0.72624490028429 0.69980864001075 0.11274556950777 
C6    C     0.53382843049030 0.69414520014251 0.83832059016045 
C7    C     0.81209683032191 0.65020112996631 0.57305614988226 
C8    C     0.03120191942168 0.58414498011188 0.87811641958212 
C9    C     0.21087171967191 0.59568599995363 0.59451830982443 
C10   C     0.50678521059418 0.72257442001317 0.10202626943428 
C11   C     0.41526241087700 0.72003807991182 0.96545579968954 
C12   C     0.45933074085706 0.69577225985543 0.69025935018098 
C13   C     0.60318889006376 0.67632642995836 0.56066490951474 
C14   C     0.23968829054839 0.55684299987784 0.88155423949913 
C15   C     0.97100832081965 0.63303673988390 0.43396142968053 
C16   C     0.97097077934324 0.36694983000957 0.93407914028672 
C17   C     0.81632351999471 0.58254260986152 0.00834942033467 
C18   C     0.17657819069232 0.60905739992725 0.44431371974338 
C19   C     0.17652810083082 0.39092908008291 0.94444734948385 
C20   C     0.41999649933282 0.56925329997381 0.60347411971814 
C21   C     0.44163118078908 0.55205563991768 0.74349076008840 
C22   C     0.81381688954616 0.55753005999736 0.13781131007860 
C23   C     0.23588897931556 0.53265407999046 0.01803369008352 
C24   C     0.02743062082450 0.53299883990719 0.14550003944210 
