data_stdin
_audit_creation_method 'critic2'
_audit_creation_date 2023-8-11
_chemical_formula_sum 'C22 H14'
_cell_formula_units_Z 8
_cell_length_a        40.7764598021
_cell_length_b        10.0544313604
_cell_length_c         9.0522012957
_cell_angle_alpha        89.9934
_cell_angle_beta        49.7844
_cell_angle_gamma        90.0011
_cell_volume          2833.993636
_space_group_crystal_system monoclinic
_space_group_IT_number 15
_space_group_name_H-M_alt 'C2/c'
_space_group_name_Hall '-C 2yc'
loop_
_symmetry_equiv_pos_site_id
_symmetry_equiv_pos_as_xyz
 1 'x,y,z'
 2 '-x,-y,-z'
 3 '-x,y,-1/2-z'
 4 'x,-y,-1/2+z'
 5 '-1/2+x,-1/2+y,z'
 6 '-1/2-x,-1/2-y,-z'
 7 '-1/2-x,-1/2+y,-1/2-z'
 8 '-1/2+x,-1/2-y,-1/2+z'
loop_
_atom_site_label
_atom_site_type_symbol
_atom_site_fract_x
_atom_site_fract_y
_atom_site_fract_z
H1    H     0.32138253346245 0.34905816890212 0.49426695361793 
H2    H     0.24340197596029 0.32479652105620 0.70091552971724 
H3    H     0.20449653189869 0.15459716295009 0.96304664511655 
H4    H     0.24574836594841 0.00722521799345 0.01272576598516 
H5    H     0.31251116373733 0.92562655773299 0.91487169440444 
H6    H     0.39152793186279 0.90676156790341 0.65853228811865 
H7    H     0.45627458468281 0.96556638555710 0.34437273374650 
H8    H     0.34317415105770 0.43537697311629 0.68752960021909 
H9    H     0.49660736371937 0.11213093633420 0.05258256302771 
H10   H     0.49998224914526 0.30726296920582 0.88800434704841 
H11   H     0.47289795546179 0.53253467370668 0.90337500518870 
H12   H     0.33014203026367 0.67657173197107 0.71524841837644 
H13   H     0.42885241823978 0.71965735811287 0.09966912580299 
H14   H     0.37105210752549 0.81975165605658 0.42068520934898 
C1    C     0.30524814890118 0.27468450854876 0.60816471266741 
C2    C     0.32993284502911 0.19213771832452 0.63115578413230 
C3    C     0.37666185039097 0.19329845396321 0.49877022378649 
C4    C     0.40349165896765 0.29476297461796 0.35505665550684 
C5    C     0.26121895409627 0.26010039415558 0.72362046921437 
C6    C     0.30729194139044 0.09178679719440 0.77801994522443 
C7    C     0.39746526937755 0.07924220777554 0.49886709331015 
C8    C     0.39275773457828 0.43504643656199 0.37570673427394 
C9    C     0.44529623037684 0.25679683017027 0.18479234430940 
C10   C     0.23917732289424 0.16367634326251 0.87144378674253 
C11   C     0.26204566215861 0.08199558413003 0.89846555845836 
C12   C     0.33040507153838 0.99595879616855 0.79525960262624 
C13   C     0.37394634002674 0.98673016742056 0.65547797624593 
C14   C     0.41844060533823 0.51993645479003 0.20982974083361 
C15   C     0.44154204037246 0.05420486669857 0.33984267030721 
C16   C     0.36116132743290 0.49618821001543 0.55761747743526 
C17   C     0.46376105859846 0.13527733763525 0.18070956791250 
C18   C     0.46932620852706 0.34261044093574 0.02005000430354 
C19   C     0.45497149481069 0.46733407565147 0.02898809124834 
C20   C     0.35399849974697 0.63183380028772 0.57325675036130 
C21   C     0.40942076373236 0.65772278248587 0.22885542685553 
C22   C     0.37751433109519 0.71351420213551 0.40744122167364 
