data_stdin
_audit_creation_method 'critic2'
_audit_creation_date 2023-8-11
_chemical_formula_sum 'C22 H14'
_cell_formula_units_Z 8
_cell_length_a         5.9345630598
_cell_length_b        19.7282585488
_cell_length_c        24.4901055015
_cell_angle_alpha        90.0003
_cell_angle_beta        89.9993
_cell_angle_gamma        90.0005
_cell_volume          2867.267129
_space_group_crystal_system orthorhombic
_space_group_IT_number 61
_space_group_name_H-M_alt 'Pbca'
_space_group_name_Hall '-P 2ac 2ab'
loop_
_symmetry_equiv_pos_site_id
_symmetry_equiv_pos_as_xyz
 1 'x,y,z'
 2 '-x,-y,-z'
 3 '-1/2-x,-y,-1/2+z'
 4 '-1/2+x,y,-1/2-z'
 5 '-1/2+x,-1/2-y,-z'
 6 '-1/2-x,-1/2+y,z'
 7 '-x,-1/2+y,-1/2-z'
 8 'x,-1/2-y,-1/2+z'
loop_
_atom_site_label
_atom_site_type_symbol
_atom_site_fract_x
_atom_site_fract_y
_atom_site_fract_z
H1    H     0.02818725020562 0.09503704004139 0.04727518986021 
H2    H     0.08458843080024 0.03039153015764 0.96285244982319 
H3    H     0.44786101985224 0.03664956975526 0.91266544997150 
H4    H     0.74693146024073 0.11610988986964 0.94503832993353 
H5    H     0.86984908942307 0.20681699015242 0.00459887999527 
H6    H     0.77571230926220 0.29201314992991 0.07478388989863 
H7    H     0.51530252020040 0.33975740991905 0.13858875019390 
H8    H     0.33042085958976 0.04817146018484 0.11926798006767 
H9    H     0.15073985015870 0.33549135004945 0.18976979010472 
H10   H     0.81803757989654 0.27338738011362 0.21823369006460 
H11   H     0.60400657047557 0.16642573024311 0.22574472011822 
H12   H     0.17001435057628 0.93948600002567 0.14792946995441 
H13   H     0.60358756985757 0.04289096975594 0.22000555014181 
H14   H     0.79564204925499 0.93524790004804 0.19549739987132 
C1    C     0.18890575006561 0.09840674975247 0.02623758008097 
C2    C     0.35847881968573 0.14192669998828 0.04711454995268 
C3    C     0.32625783968114 0.18427312003845 0.09506594982882 
C4    C     0.15239357922542 0.17455516990366 0.13547518014258 
C5    C     0.22010682938684 0.06204982994203 0.97855656983865 
C6    C     0.55894271919113 0.14995093982048 0.01521244010441 
C7    C     0.46656761936555 0.24242809023527 0.10017415988625 
C8    C     0.05653233001360 0.10939019985437 0.15023597999293 
C9    C     0.07857162021644 0.23188867978280 0.16594033001618 
C10   C     0.42490179923645 0.06633278009971 0.94971087016296 
C11   C     0.59100649988897 0.10979415974891 0.96787534012679 
C12   C     0.71620426063745 0.20213467003378 0.02852449994969 
C13   C     0.66531680939244 0.24877114016881 0.06777334989700 
C14   C     0.85434308996633 0.10704520005917 0.18206907980386 
C15   C     0.40556303049540 0.29555543002335 0.13652474011398 
C16   C     0.16798420072476 0.04729291024209 0.13968037991045 
C17   C     0.20793747017843 0.29262035003990 0.16527196985876 
C18   C     0.87779586924804 0.22771724987515 0.19784425997558 
C19   C     0.76106205075927 0.16838762994092 0.20291887979735 
C20   C     0.07724087057920 0.98602440993110 0.15599300986522 
C21   C     0.75953390015011 0.04352752976429 0.19650803014946 
C22   C     0.86812699989324 0.98374005978413 0.18334373015926 
