data_stdin
_audit_creation_method 'critic2'
_audit_creation_date 2023-8-11
_chemical_formula_sum 'C22 H14'
_cell_formula_units_Z 4
_cell_length_a        19.7012611714
_cell_length_b        14.4957239739
_cell_length_c         5.0084570001
_cell_angle_alpha        90.0002
_cell_angle_beta        89.9998
_cell_angle_gamma        89.9994
_cell_volume          1430.335404
_space_group_crystal_system orthorhombic
_space_group_IT_number 33
_space_group_name_H-M_alt 'Pna2_1'
_space_group_name_Hall 'P 2c -2n'
loop_
_symmetry_equiv_pos_site_id
_symmetry_equiv_pos_as_xyz
 1 'x,y,z'
 2 '-x,-y,-1/2+z'
 3 '-1/2-x,-1/2+y,-1/2+z'
 4 '-1/2+x,-1/2-y,z'
loop_
_atom_site_label
_atom_site_type_symbol
_atom_site_fract_x
_atom_site_fract_y
_atom_site_fract_z
H1    H     0.50345758027140 0.29551539656228 0.97081336037594 
H2    H     0.62784886592449 0.29108742938410 0.95471803017143 
H3    H     0.68758163279806 0.19907635884133 0.60722308796274 
H4    H     0.61990931347737 0.10740969817531 0.27918962572594 
H5    H     0.51053520507789 0.04749168653332 0.12423038063057 
H6    H     0.39064582278373 0.01498721353829 0.23331463000585 
H7    H     0.29568045068713 0.03022041693500 0.55041879242399 
H8    H     0.45461156533825 0.37013616281637 0.49652101008395 
H9    H     0.24253394218967 0.11177057973900 0.93787554338938 
H10   H     0.23694659741508 0.24535190872668 0.23097853490963 
H11   H     0.27162949989950 0.40594370351522 0.33670832583457 
H12   H     0.46700383961400 0.53758727691076 0.52012199079593 
H13   H     0.33159581257166 0.54667366926255 0.19354147254260 
H14   H     0.40798115626958 0.62750390271615 0.88111655380696 
C1    C     0.52856351556220 0.25669808948089 0.81373499684451 
C2    C     0.48853443136603 0.20579308409044 0.63047266127473 
C3    C     0.41540852988920 0.19882609584020 0.65553860881980 
C4    C     0.37411042818187 0.26080110694322 0.81044404879399 
C5    C     0.59859941396268 0.25367644970175 0.80553910117579 
C6    C     0.52290169259837 0.14916562971600 0.43980679390919 
C7    C     0.38341210316145 0.12058261699762 0.53998288825805 
C8    C     0.38640974577349 0.35901658723375 0.83427490480991 
C9    C     0.31419207037307 0.22489118779332 0.92902442864874 
C10   C     0.63231959059827 0.20103648212021 0.60948142668098 
C11   C     0.59480262453505 0.15022886898073 0.42834391821095 
C12   C     0.48463989559909 0.08652037003381 0.27919498478303 
C13   C     0.41807249989323 0.06938542589742 0.33778063501486 
C14   C     0.34836205676739 0.41147613838438 0.02445730448794 
C15   C     0.31869248282656 0.09193229687489 0.63576731108498 
C16   C     0.42865551178273 0.40776102013998 0.65381876783587 
C17   C     0.28846282227629 0.13803566409882 0.84330918704335 
C18   C     0.27903153071944 0.27787068564774 0.12588170961929 
C19   C     0.29754580713077 0.36666268559184 0.18157014893270 
C20   C     0.43538246693580 0.50253739819939 0.66651785449292 
C21   C     0.35879155365153 0.50792967976465 0.04149653983646 
C22   C     0.40130780039385 0.55315266309553 0.86565767748855 
