data_stdin
_audit_creation_method 'critic2'
_audit_creation_date 2023-8-11
_chemical_formula_sum 'C22 H14'
_cell_formula_units_Z 2
_cell_length_a        15.2248679391
_cell_length_b         8.9828605969
_cell_length_c         5.4916568449
_cell_angle_alpha        77.6501
_cell_angle_beta        88.4201
_cell_angle_gamma        81.2638
_cell_volume           725.153506
_space_group_crystal_system triclinic
_space_group_IT_number 2
_space_group_name_H-M_alt 'P-1'
_space_group_name_Hall '-P 1'
loop_
_symmetry_equiv_pos_site_id
_symmetry_equiv_pos_as_xyz
 1 'x,y,z'
 2 '-x,-y,-z'
loop_
_atom_site_label
_atom_site_type_symbol
_atom_site_fract_x
_atom_site_fract_y
_atom_site_fract_z
H1    H     0.36030263983059 0.60567311010717 0.46071932944045 
H2    H     0.51690624013290 0.62675668009537 0.51337612091639 
H3    H     0.56371360980128 0.74636190028325 0.84682143908807 
H4    H     0.44849501970930 0.86180602980423 0.11303835986574 
H5    H     0.29406939995361 0.93738898941474 0.20843751048909 
H6    H     0.13558760988371 0.97273121030662 0.08743470036913 
H7    H     0.02115772979577 0.93755146006957 0.82015236990899 
H8    H     0.31654206011480 0.42158862978938 0.87686535075827 
H9    H     0.97119176998259 0.81557161998431 0.49357036008983 
H10   H     0.00052337019028 0.63708410951234 0.22070550014727 
H11   H     0.09270447000066 0.41241535050148 0.09907652029814 
H12   H     0.38277409006000 0.16150321058359 0.83293181932979 
H13   H     0.21120234014869 0.19517934006595 0.20864762070815 
H14   H     0.33449888017469 0.04874226034128 0.49433744968683 
C1    C     0.37903552012226 0.65696601044599 0.60994104021907 
C2    C     0.31201983983278 0.71534373936641 0.76382088054599 
C3    C     0.21801254975745 0.71171186046435 0.73005940970171 
C4    C     0.18281834019443 0.61427482953114 0.59124326007981 
C5    C     0.46740720979097 0.66915085043025 0.63880117985949 
C6    C     0.33864464970112 0.79669662032340 0.94033398972667 
C7    C     0.15662774980943 0.82057560970850 0.82675053947615 
C8    C     0.22674594018072 0.46374478038960 0.56228269067208 
C9    C     0.09580721988604 0.66335392034030 0.48784020000424 
C10   C     0.49373122001109 0.73909657047564 0.82565406913090 
C11   C     0.42998501019302 0.80261860999131 0.97270108083352 
C12   C     0.27277286005025 0.88114501016390 0.06828954909242 
C13   C     0.18545339005965 0.89911223961926 0.00305484975112 
C14   C     0.19397216998694 0.39262348984016 0.38027541083517 
C15   C     0.06652834983053 0.85230241963268 0.74602330918210 
C16   C     0.29483447967566 0.37497747026196 0.72563380062401 
C17   C     0.03861645018120 0.78386256043402 0.56805337000511 
C18   C     0.06518686010320 0.59002814009636 0.30689433061593 
C19   C     0.11519728997178 0.46499768008569 0.24263862979167 
C20   C     0.33206238998151 0.22868667948260 0.70146597989903 
C21   C     0.23578064994701 0.24499082960123 0.35301104948437 
C22   C     0.30400959012861 0.16397625980529 0.51030743938429 
