data_stdin
_audit_creation_method 'critic2'
_audit_creation_date 2023-8-11
_chemical_formula_sum 'C22 H14'
_cell_formula_units_Z 4
_cell_length_a        28.7720271247
_cell_length_b         4.8669332227
_cell_length_c        10.1396315639
_cell_angle_alpha        89.9993
_cell_angle_beta        89.9917
_cell_angle_gamma        90.0033
_cell_volume          1419.868152
_space_group_crystal_system triclinic
_space_group_IT_number 1
_space_group_name_H-M_alt 'P1'
_space_group_name_Hall 'P 1'
loop_
_symmetry_equiv_pos_site_id
_symmetry_equiv_pos_as_xyz
 1 'x,y,z'
loop_
_atom_site_label
_atom_site_type_symbol
_atom_site_fract_x
_atom_site_fract_y
_atom_site_fract_z
H1    H     0.56492881003110 0.41291664998691 0.37840154951638 
H2    H     0.06492653005738 0.08684303927421 0.62168960983597 
H3    H     0.43502224015684 0.91313129962192 0.12158532017618 
H4    H     0.93515051003039 0.58703091039823 0.87822000981696 
H5    H     0.48352904983304 0.43926375084153 0.31209478016605 
H6    H     0.98350624995144 0.06072681053708 0.68787026998088 
H7    H     0.51645479006267 0.93881643927621 0.18759791987282 
H8    H     0.01654315015017 0.56007928034741 0.81177542046050 
H9    H     0.43172627014978 0.80663372094977 0.40298102021139 
H10   H     0.93168743008342 0.69360616066066 0.59693599951299 
H11   H     0.56829420008305 0.30598858980247 0.09678761966909 
H12   H     0.06831791008044 0.19295017049515 0.90289251965935 
H13   H     0.46247409015024 0.12675469097000 0.57315236957265 
H14   H     0.96246787008346 0.37293519102607 0.42698183966831 
H15   H     0.53752370012608 0.62695081043011 0.92690847969356 
H16   H     0.03754118008985 0.87322563049306 0.07319791022889 
H17   H     0.52376150011836 0.26936445064733 0.72145628992795 
H18   H     0.02375790997907 0.22994002948706 0.27889643026226 
H19   H     0.47623693010830 0.76984298907857 0.77873948027147 
H20   H     0.97623402006541 0.73034716983110 0.22124793017360 
H21   H     0.59957288003529 0.17186589980713 0.82651014011361 
H22   H     0.09952694994947 0.32772859950985 0.17356035024062 
H23   H     0.40046086985149 0.67206239079323 0.67349619967482 
H24   H     0.90041747999960 0.82778100898031 0.32635145023159 
H25   H     0.66820966013182 0.88646469922789 0.84672243954534 
H26   H     0.16812995000141 0.61346219929740 0.15311246970839 
H27   H     0.33183905991542 0.38633875084883 0.65316986965692 
H28   H     0.83182587992015 0.11330526005044 0.34676004985898 
H29   H     0.60509553001294 0.87457198937879 0.29458713956102 
H30   H     0.10517960988805 0.62490425997053 0.70531566958414 
H31   H     0.39481934005611 0.37531184971768 0.20544893979040 
H32   H     0.89486325003316 0.12546158911706 0.79481071005057 
H33   H     0.71852035007556 0.50914051008502 0.76294021977933 
H34   H     0.21847260998450 0.99068017961123 0.23681180957696 
H35   H     0.28152135016945 0.00906715013788 0.73697861026301 
H36   H     0.78147114014742 0.49048533102150 0.26311194959035 
H37   H     0.73940314991845 0.18999603075900 0.59092172030398 
H38   H     0.23942184008325 0.30968101919822 0.40888125013441 
H39   H     0.26061218992335 0.69002785020713 0.90907795962585 
H40   H     0.76051379998991 0.80939981052894 0.09111118978830 
H41   H     0.73493874996985 0.03854516906510 0.35719048038814 
H42   H     0.23492777000678 0.46142443932585 0.64255953022565 
H43   H     0.26508287988104 0.53863940915233 0.14277915032491 
H44   H     0.76502574990405 0.96144314966944 0.85745375952405 
H45   H     0.61551592989780 0.80708594983956 0.05705792971880 
H46   H     0.11561539006896 0.69241106084306 0.94283751016237 
H47   H     0.38438604013641 0.30783564980895 0.44295285034284 
H48   H     0.88442814991572 0.19275695902401 0.55726040009239 
H49   H     0.71099978009215 0.14465013050833 0.13206727977642 
H50   H     0.21091786012061 0.35584778947980 0.86769519032626 
H51   H     0.28904612988207 0.64453975985033 0.36790627047471 
H52   H     0.78907710994143 0.85590568063915 0.63228678963278 
H53   H     0.66685738982904 0.43113123072670 0.97279421999990 
H54   H     0.16684854999459 0.06897139948410 0.02703227021542 
H55   H     0.33310633014721 0.93145505020185 0.52719572034982 
H56   H     0.83319020006420 0.56916482932185 0.47303296962113 
C1    C     0.54333275010085 0.57580857963993 0.41833931982981 
C2    C     0.04332651007646 0.92397484029586 0.58173852958107 
C3    C     0.45663323016338 0.07599172102577 0.08166385025292 
C4    C     0.95672818989001 0.42415899939516 0.91824557034428 
C5    C     0.56256647984327 0.76207369898532 0.51092818007850 
C6    C     0.06256067012747 0.73766880930601 0.48916001997312 
C7    C     0.43740871999620 0.26245279006430 0.98916381041537 
C8    C     0.93747659014381 0.23814150944684 0.01093854956619 
C9    C     0.61010501001476 0.74204968949164 0.55818260021009 
C10   C     0.11009150988040 0.75776150046506 0.44179303048881 
C11   C     0.38987602007073 0.24243893931012 0.94186751039319 
C12   C     0.88993772013469 0.25826318926456 0.05826650026577 
C13   C     0.64630255017275 0.58460974025151 0.49492432020569 
C14   C     0.14629809987318 0.91521708982212 0.50495809980028 
C15   C     0.35367543984479 0.08498532001902 0.00509692990827 
C16   C     0.85372854985166 0.41567708949943 0.99509438981026 
C17   C     0.49715962006017 0.58942674009061 0.38157314997258 
C18   C     0.99714214995824 0.91049240972999 0.61843570021637 
C19   C     0.50282278003980 0.08927416905488 0.11828174978924 
C20   C     0.00289906011842 0.41023889939392 0.88140702951064 
C21   C     0.53168780994524 0.95580650920445 0.57090647977810 
C22   C     0.03168087999269 0.54384231071462 0.42925546038086 
C23   C     0.46829925998969 0.45617634092145 0.92922034044370 
C24   C     0.96834106000566 0.04428529089335 0.07088943001713 
C25   C     0.62052875984571 0.86801952051666 0.68140083983418 
C26   C     0.12049041004434 0.63181031004587 0.31854774033656 
C27   C     0.37947739004638 0.36827048019852 0.81860165957640 
C28   C     0.87950821009472 0.13212518101103 0.18144880030655 
C29   C     0.65014324983662 0.54045142933810 0.35365855016723 
C30   C     0.15015232988801 0.95938881934264 0.64621100990998 
C31   C     0.34982961998749 0.04087073016057 0.14635880996419 
C32   C     0.84987889982632 0.45988703971359 0.85384187003798 
C33   C     0.68291414994978 0.48116913070572 0.57500146016539 
C34   C     0.18290429009655 0.01865119008269 0.42483027019337 
C35   C     0.31708306989017 0.98139035947617 0.92498854997307 
C36   C     0.81709072014211 0.51885361994430 0.07517743023973 
C37   C     0.46780058017188 0.79303368045854 0.43451642963998 
C38   C     0.96777429997360 0.70694028100717 0.56548655970382 
C39   C     0.53220372002377 0.29282681019707 0.06536120048342 
C40   C     0.03224486016082 0.20671365038384 0.93443764961263 
C41   C     0.48491073987868 0.97262875897997 0.52798017022879 
C42   C     0.98489564002979 0.52713258984281 0.47213563973317 
C43   C     0.51509026987281 0.47277452022869 0.97207217025147 
C44   C     0.01511709984111 0.02732662017251 0.02797806038815 
C45   C     0.54719742991869 0.11681362953847 0.67990366995011 
C46   C     0.04718833990465 0.38269267062817 0.32029996956144 
C47   C     0.45279775016694 0.61724170099863 0.82023903036432 
C48   C     0.95281507984363 0.88312155015041 0.17981850034864 
C49   C     0.58924146015807 0.06430850042289 0.73692349964349 
C50   C     0.08921095009620 0.43533745043084 0.26314953028895 
C51   C     0.41077013017148 0.56460372927616 0.76312914976068 
C52   C     0.91077256992284 0.93560776001509 0.23686189005130 
C53   C     0.68241491007134 0.34091999006364 0.30481972015606 
C54   C     0.18240224987582 0.15907975939168 0.69499348046345 
C55   C     0.31758223001786 0.84117126901798 0.19518159002093 
C56   C     0.81761005992497 0.65942731996315 0.80504146034281 
C57   C     0.66124009012280 0.78989785947145 0.75172682032198 
C58   C     0.16118357998296 0.70999097963905 0.24813201017719 
C59   C     0.33878789000720 0.28995359049640 0.74821772021766 
C60   C     0.83879068008588 0.21005476078603 0.25180455972703 
C61   C     0.62714864014393 0.70848646048035 0.25998053956241 
C62   C     0.12719629012227 0.79117412931667 0.73990999999410 
C63   C     0.37279650987898 0.20905307988988 0.24004411016325 
C64   C     0.87284317999856 0.29166254038085 0.76017450965900 
C65   C     0.68934319990239 0.58480596089925 0.70487700960595 
C66   C     0.18930495002426 0.91504408059481 0.29493798029842 
C67   C     0.31068026014029 0.08487857004865 0.79507609009838 
C68   C     0.81066315014876 0.41507499009002 0.20502084962229 
C69   C     0.71402422006068 0.27896148031904 0.52372314974493 
C70   C     0.21402321005800 0.22084025954894 0.47607232009405 
C71   C     0.28598428008407 0.77911989954995 0.97626324997862 
C72   C     0.78594586992733 0.72088576006644 0.02392283016236 
C73   C     0.71209602999803 0.19893523071812 0.39484854046175 
C74   C     0.21208547991918 0.30100170935827 0.60493256009418 
C75   C     0.28791637009320 0.69910377906520 0.10514091996167 
C76   C     0.78789261014781 0.80116206004853 0.89508479979162 
C77   C     0.63329939992357 0.67135057048337 0.12596826991663 
C78   C     0.13335447007840 0.82833948905669 0.87390850965434 
C79   C     0.36663789992889 0.17189603045818 0.37405065983040 
C80   C     0.86668784000222 0.32871680035578 0.62616735001640 
C81   C     0.68685498002396 0.30061566008076 0.16711191982158 
C82   C     0.18682480987339 0.19954588045779 0.83269757982753 
C83   C     0.31315133004928 0.80076800021942 0.33288911999862 
C84   C     0.81319017993549 0.69978616081572 0.66733400988580 
C85   C     0.66259057009883 0.46130459952055 0.07850405039735 
C86   C     0.16259594013288 0.03869859051760 0.92132923045897 
C87   C     0.33738358989738 0.96162944098380 0.42150117010531 
C88   C     0.83743519012582 0.53896357977877 0.57872542041159 
