data_stdin
_audit_creation_method 'critic2'
_audit_creation_date 2023-8-11
_chemical_formula_sum 'C22 H14'
_cell_formula_units_Z 4
_cell_length_a        10.0035801890
_cell_length_b         4.8115033404
_cell_length_c        29.6897301872
_cell_angle_alpha        90.0055
_cell_angle_beta        89.8825
_cell_angle_gamma        90.0025
_cell_volume          1429.030785
_space_group_crystal_system monoclinic
_space_group_IT_number 14
_space_group_name_H-M_alt 'P2_1/c'
_space_group_name_Hall '-P 2ybc'
loop_
_symmetry_equiv_pos_site_id
_symmetry_equiv_pos_as_xyz
 1 'x,y,z'
 2 '-x,-y,-z'
 3 '-x,-1/2+y,-1/2-z'
 4 'x,-1/2-y,-1/2+z'
loop_
_atom_site_label
_atom_site_type_symbol
_atom_site_fract_x
_atom_site_fract_y
_atom_site_fract_z
H1    H     0.88062215008623 0.96905268025497 0.18420253986442 
H2    H     0.93505189972599 0.96052075097450 0.26424418014417 
H3    H     0.83650395971555 0.59806365931480 0.31486810986271 
H4    H     0.66920213028891 0.26676792098624 0.28404391987561 
H5    H     0.52698060992014 0.11206529993744 0.22335749010253 
H6    H     0.43401667951587 0.18854260932279 0.14723592994263 
H7    H     0.42751671951502 0.44985486994332 0.07768970006667 
H8    H     0.97418637019908 0.49371204989366 0.14935186988326 
H9    H     0.52004206958455 0.81878421990687 0.02786545985729 
H10   H     0.69458455949493 0.15460083068786 0.01023643010175 
H11   H     0.92773716006959 0.31576180087712 0.01882266014629 
H12   H     0.21618490039131 0.56595018899902 0.14294545996530 
H13   H     0.15102639033262 0.22735741070872 0.04777857992213 
H14   H     0.30724937978525 0.94223650037863 0.09383436013641 
C1    C     0.83702000002739 0.80859017958069 0.20532260011524 
C2    C     0.74669982005203 0.61506371936258 0.18617778010840 
C3    C     0.70700303017070 0.62242947081814 0.13913838008182 
C4    C     0.77664878969630 0.77505398059735 0.10445083001188 
C5    C     0.86716618992473 0.80500627040170 0.25071538993613 
C6    C     0.68113547030729 0.42630820008404 0.21622572000769 
C7    C     0.58473434024339 0.48940895925485 0.12743709993921 
C8    C     0.91984091957834 0.82452606004204 0.10348207012477 
C9    C     0.70178280965011 0.86852321011480 0.06666461007610 
C10   C     0.80971980025248 0.60461194948843 0.27938378985731 
C11   C     0.71774276967106 0.41905145070265 0.26227197011551 
C12   C     0.57323261976432 0.25963381018012 0.20035234998140 
C13   C     0.52296859966451 0.30024013091203 0.15816397005988 
C14   C     0.97333279968611 0.02389865101555 0.07252762006965 
C15   C     0.52145774033437 0.55306266009405 0.08579545998938 
C16   C     0.01183721959640 0.66011311037789 0.12810505014584 
C17   C     0.57324818995950 0.75373813937782 0.05808453993315 
C18   C     0.75758942981677 0.07066829913094 0.03683889986920 
C19   C     0.88666886978289 0.15818639965971 0.04124289995273 
C20   C     0.14819114950487 0.70002700961472 0.12431778014294 
C21   C     0.11305950974701 0.06992607071460 0.07084969013812 
C22   C     0.19963056022417 0.91117401050500 0.09626679997717 
