data_stdin
_audit_creation_method 'critic2'
_audit_creation_date 2023-8-11
_chemical_formula_sum 'C22 H14'
_cell_formula_units_Z 2
_cell_length_a         8.7404332498
_cell_length_b        11.0188642100
_cell_length_c         8.5985036973
_cell_angle_alpha        89.9997
_cell_angle_beta        65.2765
_cell_angle_gamma        90.0002
_cell_volume           752.210488
_space_group_crystal_system monoclinic
_space_group_IT_number 4
_space_group_name_H-M_alt 'P2_1'
_space_group_name_Hall 'P 2yb'
loop_
_symmetry_equiv_pos_site_id
_symmetry_equiv_pos_as_xyz
 1 'x,y,z'
 2 '-x,-1/2+y,-z'
loop_
_atom_site_label
_atom_site_type_symbol
_atom_site_fract_x
_atom_site_fract_y
_atom_site_fract_z
H1    H     0.46254187967481 0.99268436984259 0.61082297041872 
H2    H     0.76321972995650 0.00298148036977 0.42277618940267 
H3    H     0.87599237951801 0.16818390965346 0.20358214998079 
H4    H     0.67657718007913 0.31047128009483 0.16238378955544 
H5    H     0.39179153042165 0.37172008982161 0.22168499942520 
H6    H     0.08448065017605 0.32919805028889 0.36400001003164 
H7    H     0.85216175993043 0.20927028959305 0.55674981000695 
H8    H     0.40149741003066 0.19885458991193 0.79123384994044 
H9    H     0.73772194007532 0.05203547958680 0.78128597042395 
H10   H     0.77160723050642 0.91338512967072 0.98462813968737 
H11   H     0.92934764011002 0.84664150013749 0.15070109988829 
H12   H     0.51980131976005 0.16430963986577 0.00062470009856 
H13   H     0.15232514020535 0.88557477977344 0.24287092015253 
H14   H     0.40389509008423 0.00249709979176 0.22202960060884 
C1    C     0.50870287972047 0.06571273963781 0.51796983996972 
C2    C     0.39252087043923 0.15053282964349 0.50512060956835 
C3    C     0.21239002010432 0.14411982003362 0.61044587040919 
C4    C     0.13483331973607 0.07811492958390 0.76980471977439 
C5    C     0.67851822023970 0.07110882996045 0.41090940017283 
C6    C     0.45555397984031 0.23625592976404 0.36771924015689 
C7    C     0.10494920010496 0.19964324001330 0.54406594042693 
C8    C     0.21106489971003 0.05837765999491 0.88891640025505 
C9    C     0.96644720058838 0.03630677999246 0.82064024938681 
C10   C     0.74180204968941 0.16309772977836 0.28605758964852 
C11   C     0.63095157046476 0.24319203030064 0.26429160949935 
C12   C     0.34062504015148 0.30651632995234 0.32623827976940 
C13   C     0.17177510046749 0.28390497988377 0.40555560961905 
C14   C     0.13561046990910 0.97334916986914 0.02614020966888 
C15   C     0.93121981970310 0.16845317038012 0.61251005943805 
C16   C     0.34893787971457 0.12761913985917 0.88632209050950 
C17   C     0.86746647034331 0.08237393016690 0.73806666005632 
C18   C     0.89624990991284 0.95007115029499 0.95638912962624 
C19   C     0.98189268989696 0.91442839987527 0.04993250952533 
C20   C     0.41615723973772 0.10803755961076 0.00390688038085 
C21   C     0.21010743991677 0.95253089967364 0.14196650017750 
C22   C     0.34954163006620 0.01742066995852 0.13042343971024 
