data_stdin
_audit_creation_method 'critic2'
_audit_creation_date 2023-8-11
_chemical_formula_sum 'C22 H14'
_cell_formula_units_Z 8
_cell_length_a        11.1977944175
_cell_length_b         7.7762020823
_cell_length_c        32.9628076443
_cell_angle_alpha        89.9994
_cell_angle_beta        89.9886
_cell_angle_gamma        89.9999
_cell_volume          2870.279674
_space_group_crystal_system monoclinic
_space_group_IT_number 14
_space_group_name_H-M_alt 'P2_1/c'
_space_group_name_Hall '-P 2ybc'
loop_
_symmetry_equiv_pos_site_id
_symmetry_equiv_pos_as_xyz
 1 'x,y,z'
 2 '-x,-y,-z'
 3 '-x,-1/2+y,-1/2-z'
 4 'x,-1/2-y,-1/2+z'
loop_
_atom_site_label
_atom_site_type_symbol
_atom_site_fract_x
_atom_site_fract_y
_atom_site_fract_z
H1    H     0.98091932754543 0.95931070449573 0.83705417098507 
H2    H     0.48093754529407 0.54082895550017 0.16297629636176 
H3    H     0.05328504012082 0.25437851634566 0.82857822898036 
H4    H     0.55334534399892 0.24579105254730 0.17145401948369 
H5    H     0.16852484071274 0.39841383034778 0.88389080647152 
H6    H     0.66853916032293 0.10170804092713 0.11612469340735 
H7    H     0.20253182408391 0.24472561379621 0.94875868416685 
H8    H     0.70247651835868 0.25532876485393 0.05124233348317 
H9    H     0.16189787447074 0.00408507538412 0.99371937121697 
H10   H     0.66181737610337 0.49594034189126 0.00628149812893 
H11   H     0.03982491562578 0.74772570876908 0.00894115629409 
H12   H     0.53974147387049 0.75229319023063 0.99107093994397 
H13   H     0.88728654479913 0.54412691509767 0.98851099918222 
H14   H     0.38723631563578 0.95593164351175 0.01151743955672 
H15   H     0.17139670998043 0.74693310069007 0.84593918622034 
H16   H     0.67140871647974 0.75326897984217 0.15405040789643 
H17   H     0.76609219097148 0.40216620412545 0.93452688254744 
H18   H     0.26605247042477 0.09791348757650 0.06551545469892 
H19   H     0.72528240303826 0.35072012213032 0.86377052719958 
H20   H     0.22525813462991 0.14937918453946 0.13627767301658 
H21   H     0.77516286191822 0.38653718881963 0.79116178873639 
H22   H     0.27513997909621 0.11355981145939 0.20888162022705 
H23   H     0.24975580251841 0.71390387037781 0.77701146076539 
H24   H     0.74977299919061 0.78630071939104 0.22296864356623 
H25   H     0.92084470910277 0.47542443427711 0.73948965896318 
H26   H     0.42083561484827 0.02469606658260 0.26053462237619 
H27   H     0.12036569927016 0.59218226884537 0.72207795281648 
H28   H     0.62037246397253 0.90796313842319 0.27792110896040 
C1    C     0.03168715485348 0.01869044771326 0.86136930740798 
C2    C     0.53169392770364 0.48143594563859 0.13865464250559 
C3    C     0.05044514306418 0.92601397044850 0.89786580132015 
C4    C     0.55041746739602 0.57407958685387 0.10215050896598 
C5    C     0.99959523805829 0.75693934306642 0.90533703429465 
C6    C     0.49956343497220 0.74315025421483 0.09468143600348 
C7    C     0.95305866035106 0.64414312314431 0.87437607613661 
C8    C     0.45304045328993 0.85597048049999 0.12564574069649 
C9    C     0.07239646152601 0.18522448418721 0.85654473378067 
C10   C     0.57242330498195 0.31491520696293 0.14347944306843 
C11   C     0.10993768552872 0.01388320546494 0.93026191572387 
C12   C     0.60989045737303 0.48618510888672 0.06974718517029 
C13   C     0.98410471822630 0.70686871415267 0.94658660945803 
C14   C     0.48405310407988 0.79319466538121 0.05343253283403 
C15   C     0.99849239182296 0.63498232216093 0.83315742182250 
C16   C     0.49848804306830 0.86516102703086 0.16685718555429 
C17   C     0.86171773881635 0.52546306029981 0.88531172433913 
C18   C     0.36169337128743 0.97463947156499 0.11472053839598 
C19   C     0.13643802259885 0.26730299940999 0.88784656258188 
C20   C     0.63644225135211 0.23281089856296 0.11216909666357 
C21   C     0.15517849905658 0.18187802424146 0.92399632520701 
C22   C     0.65514347158821 0.31819917598132 0.07601117328886 
C23   C     0.11403918048418 0.93767849731676 0.96959606247789 
C24   C     0.61396927373413 0.56236092638994 0.03041006583559 
C25   C     0.04770326106099 0.79459004218935 0.97791778092002 
C26   C     0.54763341687795 0.70544728181153 0.02209433615593 
C27   C     0.93082278629858 0.54647165269562 0.80281888342706 
C28   C     0.43081550065483 0.95366127387948 0.19720440803091 
C29   C     0.90120226013340 0.57451602452838 0.95659206587926 
C30   C     0.40115534964301 0.92555190412519 0.04343547105928 
C31   C     0.11463938308960 0.69183745920040 0.82263336440420 
C32   C     0.61464562567652 0.80834070556268 0.17736445865202 
C33   C     0.83554123237635 0.49503008957036 0.92695505571350 
C34   C     0.33550388262115 0.00505483622675 0.07307973610824 
C35   C     0.79764696069487 0.43535922856568 0.85447254450433 
C36   C     0.29762577911932 0.06474749485397 0.14556761639101 
C37   C     0.82617491444403 0.45355398405859 0.81441258362395 
C38   C     0.32615848246002 0.04655908252743 0.18562427032705 
C39   C     0.15882914733651 0.67279930083966 0.78373657591829 
C40   C     0.65884083165438 0.82738298837662 0.21625588168596 
C41   C     0.97483442598825 0.53870408277087 0.76253102279620 
C42   C     0.47483303516985 0.96143107114605 0.23748674472861 
C43   C     0.08680203748855 0.60105609250310 0.75299728273406 
C44   C     0.58680744369919 0.89909851510328 0.24700541771578 
