data_stdin
_audit_creation_method 'critic2'
_audit_creation_date 2023-8-11
_chemical_formula_sum 'C22 H14'
_cell_formula_units_Z 4
_cell_length_a         7.5771450141
_cell_length_b        11.2350029801
_cell_length_c        17.0257545645
_cell_angle_alpha        90.0000
_cell_angle_beta       101.0932
_cell_angle_gamma        90.0004
_cell_volume          1422.308673
_space_group_crystal_system monoclinic
_space_group_IT_number 14
_space_group_name_H-M_alt 'P2_1/c'
_space_group_name_Hall '-P 2ybc'
loop_
_symmetry_equiv_pos_site_id
_symmetry_equiv_pos_as_xyz
 1 'x,y,z'
 2 '-x,-y,-z'
 3 '-x,-1/2+y,-1/2-z'
 4 'x,-1/2-y,-1/2+z'
loop_
_atom_site_label
_atom_site_type_symbol
_atom_site_fract_x
_atom_site_fract_y
_atom_site_fract_z
H1    H     0.72331805935136 0.55019717019792 0.32506727985603 
H2    H     0.03600169057482 0.48685691961915 0.37129095018655 
H3    H     0.23783451036903 0.59851396973080 0.47766316992575 
H4    H     0.12814888071249 0.78315752960771 0.53332323012471 
H5    H     0.90030626989147 0.93502630012666 0.52987811016191 
H6    H     0.61319700001940 0.02408764978655 0.46105362002554 
H7    H     0.34508159958580 0.01728914992870 0.36173115006826 
H8    H     0.56497371965711 0.51838369979974 0.44251693021389 
H9    H     0.14340878039615 0.91266162987981 0.25049046010832 
H10   H     0.05514764001886 0.73694098011442 0.17389710018307 
H11   H     0.06581815009037 0.51688880013698 0.15751852971300 
H12   H     0.51462406066127 0.30208046960419 0.44397436008052 
H13   H     0.15793355955418 0.32473350009403 0.21529072986450 
H14   H     0.32168792041687 0.20248789980745 0.32663554988723 
C1    C     0.80849588047214 0.59989174010238 0.37241287971963 
C2    C     0.73731949925440 0.70081673962082 0.40547243973516 
C3    C     0.55528085010783 0.74420442014557 0.37683798976325 
C4    C     0.41354586983614 0.67729875019005 0.32669526998361 
C5    C     0.98470560998608 0.56441271014565 0.39790917989135 
C6    C     0.85969917988303 0.76991084979814 0.46238514015631 
C7    C     0.52125409027872 0.86588476008158 0.39244427974439 
C8    C     0.39452636030687 0.54854183981188 0.32707439020828 
C9    C     0.27505097034346 0.74220268986730 0.27605388999113 
C10   C     0.10014050039150 0.62831386026106 0.45789231989286 
C11   C     0.03851804060693 0.72992051979730 0.48910964019266 
C12   C     0.80622768007498 0.88397780963285 0.48615035014112 
C13   C     0.64681997000589 0.93251467001970 0.44897522006987 
C14   C     0.26997306015624 0.49175689965321 0.26439273006447 
C15   C     0.36653482018478 0.92411768986838 0.34864905981482 
C16   C     0.47883045987276 0.47631553984436 0.39173813019824 
C17   C     0.25455888041714 0.86624327982188 0.28813979976145 
C18   C     0.15243056968439 0.68290763000918 0.21415209985575 
C19   C     0.15645244968516 0.56220031021577 0.20567745970269 
C20   C     0.45138917973115 0.35465306043119 0.39241067008127 
C21   C     0.24977786962019 0.36652383970745 0.26462329023997 
C22   C     0.33984509986064 0.29856217019957 0.32718284007375 
