data_stdin
_audit_creation_method 'critic2'
_audit_creation_date 2023-8-11
_chemical_formula_sum 'C22 H14'
_cell_formula_units_Z 4
_cell_length_a         4.2477244091
_cell_length_b        10.4142673001
_cell_length_c        31.5566904530
_cell_angle_alpha        89.9974
_cell_angle_beta        89.9965
_cell_angle_gamma        89.9990
_cell_volume          1395.971336
_space_group_crystal_system orthorhombic
_space_group_IT_number 19
_space_group_name_H-M_alt 'P2_12_12_1'
_space_group_name_Hall 'P 2ac 2ab'
loop_
_symmetry_equiv_pos_site_id
_symmetry_equiv_pos_as_xyz
 1 'x,y,z'
 2 '-1/2-x,-y,-1/2+z'
 3 '-1/2+x,-1/2-y,-z'
 4 '-x,-1/2+y,-1/2-z'
loop_
_atom_site_label
_atom_site_type_symbol
_atom_site_fract_x
_atom_site_fract_y
_atom_site_fract_z
H1    H     0.41468291958061 0.35685254961669 0.34346021989229 
H2    H     0.40072862938613 0.12268323041654 0.33729193000950 
H3    H     0.07694480065929 0.99156155033872 0.38685505995850 
H4    H     0.78460658043258 0.10046060968598 0.44536300989042 
H5    H     0.64809068110854 0.29081085995565 0.48452672997736 
H6    H     0.74738688928131 0.52030507000038 0.50001811004608 
H7    H     0.02784985902579 0.71530619042633 0.48621522008335 
H8    H     0.87847886100691 0.42607120011002 0.32372529996250 
H9    H     0.37426624054880 0.84788787033415 0.43980170015784 
H10   H     0.62143801037003 0.88666027992087 0.37379854003674 
H11   H     0.67281221045978 0.84203882022154 0.29675512991670 
H12   H     0.84109419901914 0.41530400995079 0.24661284006828 
H13   H     0.48520735036866 0.73234512979376 0.23520556009910 
H14   H     0.14520217907950 0.56719919017119 0.20113125999727 
C1    C     0.26794329083009 0.30216116959646 0.36505976994725 
C2    C     0.09441074888750 0.36809318032867 0.39665288006628 
C3    C     0.10566962045674 0.50672466000899 0.40207539984569 
C4    C     0.22636351959807 0.59767341007995 0.37127954005765 
C5    C     0.26141979113909 0.16995007979548 0.36166347001070 
C6    C     0.92802098946318 0.29105694004207 0.42691900990573 
C7    C     0.01075199043989 0.55549736959520 0.44229882992685 
C8    C     0.21255395970695 0.58304494045108 0.32544709008276 
C9    C     0.34521590065400 0.71659477985929 0.38688945996059 
C10   C     0.08139302932705 0.09563481982589 0.39002876004663 
C11   C     0.91985265044398 0.15580117966181 0.42235134006031 
C12   C     0.78523485998033 0.34992829964710 0.46287241986168 
C13   C     0.83789423960898 0.47666129007998 0.47109618991053 
C14   C     0.37354356926234 0.67357025031658 0.29896043986230 
C15   C     0.09800924024141 0.68162669018319 0.45494935998620 
C16   C     0.01947199987451 0.49131851958520 0.30480646998516 
C17   C     0.28363890018681 0.75531427021138 0.42927592993458 
C18   C     0.51473708003006 0.80163272041129 0.35974618989812 
C19   C     0.54003708060065 0.77827453996358 0.31739499004686 
C20   C     0.99709621898873 0.48536593010832 0.26117491006534 
C21   C     0.35294750917208 0.66378106009459 0.25430843010537 
C22   C     0.16730046028631 0.57143962983836 0.23547420998429 
