data_stdin
_audit_creation_method 'critic2'
_audit_creation_date 2023-8-11
_chemical_formula_sum 'C22 H14'
_cell_formula_units_Z 4
_cell_length_a        11.4953100492
_cell_length_b         9.8903930311
_cell_length_c        14.1458467521
_cell_angle_alpha        89.9994
_cell_angle_beta        64.8234
_cell_angle_gamma        89.9989
_cell_volume          1455.499569
_space_group_crystal_system monoclinic
_space_group_IT_number 14
_space_group_name_H-M_alt 'P2_1/c'
_space_group_name_Hall '-P 2ybc'
loop_
_symmetry_equiv_pos_site_id
_symmetry_equiv_pos_as_xyz
 1 'x,y,z'
 2 '-x,-y,-z'
 3 '-x,-1/2+y,-1/2-z'
 4 'x,-1/2-y,-1/2+z'
loop_
_atom_site_label
_atom_site_type_symbol
_atom_site_fract_x
_atom_site_fract_y
_atom_site_fract_z
H1    H     0.66675728984082 0.23870876968512 0.55759954977587 
H2    H     0.70786037001197 0.39879639027038 0.67282692013330 
H3    H     0.93217878958896 0.45158777027744 0.64481188015753 
H4    H     0.11308978983822 0.32101387990558 0.51325215034602 
H5    H     0.18891195030977 0.13024297018143 0.39365651016772 
H6    H     0.14117459006150 0.93252317047024 0.30942109973166 
H7    H     0.99099745053796 0.79484374009013 0.27370175964352 
H8    H     0.78207884976185 0.35212638020197 0.37329797010925 
H9    H     0.77108183994171 0.75193968037588 0.29032881999203 
H10   H     0.55588849967169 0.82852932019031 0.33188770006897 
H11   H     0.39647571955175 0.01273666001063 0.37292259003346 
H12   H     0.64143758967784 0.53821784973175 0.37470099991264 
H13   H     0.35033077962055 0.25461046048029 0.39034939020715 
H14   H     0.42010187979842 0.49153683030965 0.39011394007598 
C1    C     0.76511267965424 0.25851849040558 0.54545417991712 
C2    C     0.86681857982090 0.18859983009931 0.46496284971884 
C3    C     0.84592146033680 0.08974812994061 0.39771843018290 
C4    C     0.73021889005950 0.07948917027435 0.38159181012532 
C5    C     0.78809796004930 0.34924157971647 0.60995706975883 
C6    C     0.99350816024303 0.20682577040394 0.45857813031144 
C7    C     0.94359191970533 0.99066836048067 0.35002631991618 
C8    C     0.64729016046319 0.19242026043938 0.38568599969456 
C9    C     0.70033558982956 0.95168191969538 0.35099294014350 
C10   C     0.91468397969490 0.37691448001222 0.59582199006020 
C11   C     0.01533810004206 0.30563323032125 0.52160474006498 
C12   C     0.09378198011249 0.11712701989573 0.39574123983730 
C13   C     0.06786858032940 0.00872275949464 0.34816796014450 
C14   C     0.52525454974832 0.16659616010979 0.38453546998045 
C15   C     0.91595341970961 0.87066358962165 0.30788710996032 
C16   C     0.68679654027673 0.32920004995621 0.37933926961623 
C17   C     0.79458156060467 0.84763162028106 0.31610994958429 
C18   C     0.57773554037339 0.92948078953000 0.35069265972262 
C19   C     0.49041602006351 0.03163117982300 0.37183577018224 
C20   C     0.60762903962710 0.43447376042743 0.37956377017312 
C21   C     0.44412464030453 0.27636499025942 0.38861802976170 
C22   C     0.48353083041842 0.40844785043439 0.38708618979399 
