data_stdin
_audit_creation_method 'critic2'
_audit_creation_date 2023-8-11
_chemical_formula_sum 'C22 H14'
_cell_formula_units_Z 4
_cell_length_a        10.0364310667
_cell_length_b         4.8543773373
_cell_length_c        29.5056072509
_cell_angle_alpha        89.9938
_cell_angle_beta        84.2690
_cell_angle_gamma        89.9991
_cell_volume          1430.346346
_space_group_crystal_system monoclinic
_space_group_IT_number 14
_space_group_name_H-M_alt 'P2_1/c'
_space_group_name_Hall '-P 2ybc'
loop_
_symmetry_equiv_pos_site_id
_symmetry_equiv_pos_as_xyz
 1 'x,y,z'
 2 '-x,-y,-z'
 3 '-x,-1/2+y,-1/2-z'
 4 'x,-1/2-y,-1/2+z'
loop_
_atom_site_label
_atom_site_type_symbol
_atom_site_fract_x
_atom_site_fract_y
_atom_site_fract_z
H1    H     0.14480996041194 0.25493906012003 0.68448767998296 
H2    H     0.05926935000678 0.26973542959471 0.76477375014282 
H3    H     0.13712403990740 0.63352485020594 0.81615406002409 
H4    H     0.31424034034280 0.96238213959598 0.78586570988789 
H5    H     0.47779713971387 0.11491632961148 0.72550836003638 
H6    H     0.60194078029932 0.03007810940181 0.65012486993258 
H7    H     0.63960642962660 0.75590227996716 0.58151441008720 
H8    H     0.06525499026674 0.71796518910919 0.64640758006514 
H9    H     0.56955613999994 0.38355741081945 0.53138169010674 
H10   H     0.40267037952000 0.05431410083029 0.51151712003794 
H11   H     0.16892793018771 0.88291551976743 0.51878555016755 
H12   H     0.82809679029510 0.63805150064032 0.63753466007197 
H13   H     0.93461821021141 0.96853448908939 0.54513788013820 
H14   H     0.75937532952993 0.25446489948046 0.58846250987975 
C1    C     0.17945041966747 0.41651215913546 0.70587652984160 
C2    C     0.27642328037194 0.60754444009317 0.68699844998155 
C3    C     0.33537669045606 0.59456651984537 0.64000561016224 
C4    C     0.28119883966930 0.43823509976722 0.60451412015287 
C5    C     0.13172823012085 0.42351084072876 0.75143757011511 
C6    C     0.32893479990197 0.79896723028700 0.71755158990178 
C7    C     0.46161156030729 0.72571227916978 0.62939935011874 
C8    C     0.13962170992349 0.38628539899949 0.60180649994613 
C9    C     0.37155601041081 0.34187625085878 0.56768037995184 
C10   C     0.17729742975605 0.62505633054344 0.78054018989823 
C11   C     0.27465603979714 0.80927740055346 0.76371798989478 
C12   C     0.44191851989386 0.96456635947211 0.70224325009221 
C13   C     0.50946377999378 0.91920457075023 0.66044414003100 
C14   C     0.10002974977241 0.18299810968486 0.57066009005710 
C15   C     0.54263825997356 0.65554719013884 0.58870607012717 
C16   C     0.03744058994174 0.54943742100490 0.62504249999859 
C17   C     0.50328764003495 0.45248869924483 0.56069423014347 
C18   C     0.32877744046786 0.13802559987600 0.53735652998964 
C19   C     0.19946465000500 0.04741092935387 0.54062964000620 
C20   C     0.90375904989583 0.50503127944577 0.61985715990024 
C21   C     0.96226205021528 0.13225282927448 0.56764765992505 
C22   C     0.86510391986223 0.29032644982133 0.59176957991689 
