data_stdin
_audit_creation_method 'critic2'
_audit_creation_date 2023-8-11
_chemical_formula_sum 'C22 H14'
_cell_formula_units_Z 8
_cell_length_a        25.7621419983
_cell_length_b         5.5431572942
_cell_length_c        20.2231721314
_cell_angle_alpha        90.0027
_cell_angle_beta        90.0004
_cell_angle_gamma        90.0012
_cell_volume          2887.941888
_space_group_crystal_system orthorhombic
_space_group_IT_number 61
_space_group_name_H-M_alt 'Pbca'
_space_group_name_Hall '-P 2ac 2ab'
loop_
_symmetry_equiv_pos_site_id
_symmetry_equiv_pos_as_xyz
 1 'x,y,z'
 2 '-x,-y,-z'
 3 '-1/2+x,-1/2-y,-z'
 4 '-1/2-x,-1/2+y,z'
 5 '-x,-1/2+y,-1/2-z'
 6 'x,-1/2-y,-1/2+z'
 7 '-1/2-x,-y,-1/2+z'
 8 '-1/2+x,y,-1/2-z'
loop_
_atom_site_label
_atom_site_type_symbol
_atom_site_fract_x
_atom_site_fract_y
_atom_site_fract_z
H1    H     0.45163808993838 0.94217751911690 0.91695925021016 
H2    H     0.53479429002519 0.07699704041228 0.96338242013262 
H3    H     0.57325127018808 0.46919922017082 0.92951200993024 
H4    H     0.53111111991091 0.70810986053816 0.83962222986787 
H5    H     0.46596025980808 0.74214583958120 0.75276724982837 
H6    H     0.39606214983774 0.55156633994007 0.68809996014191 
H7    H     0.33457089004424 0.22307204074464 0.67091419004508 
H8    H     0.38629125985074 0.28918935040853 0.95642003999132 
H9    H     0.29177944983638 0.84714446087275 0.71021154988954 
H10   H     0.27544775984318 0.55564787058665 0.79568707998727 
H11   H     0.27684301001653 0.43836069979977 0.91342445014022 
H12   H     0.37089429012398 0.21602196935474 0.07375880993510 
H13   H     0.29133965997766 0.55341038946698 0.02736718979055 
H14   H     0.32538769992323 0.84109232057626 0.11148993009560 
C1    C     0.46765805991186 0.11485675037220 0.90177736980262 
C2    C     0.44108904012218 0.25291361074171 0.85352877019754 
C3    C     0.39283638993603 0.17381009974436 0.82348385014704 
C4    C     0.35807746988684 0.99797759012248 0.85192580022945 
C5    C     0.51449027005019 0.19041206043883 0.92791031020931 
C6    C     0.46640334998194 0.46423311994956 0.82872653009033 
C7    C     0.38090298981804 0.26743309936037 0.75967582014438 
C8    C     0.35113906994922 0.95622257960978 0.92238926005339 
C9    C     0.32511099018279 0.86741957930722 0.80830196014689 
C10   C     0.53675337002824 0.41048601065125 0.90767764983030 
C11   C     0.51323720989477 0.54384188080334 0.85839057008367 
C12   C     0.44692903011684 0.57961209034201 0.77072281004536 
C13   C     0.40773792990972 0.47496666062637 0.73542522989681 
C14   C     0.32167518010777 0.75161055040894 0.94404230985281 
C15   C     0.34273165985056 0.15138312043214 0.71997762020313 
C16   C     0.36719803005377 0.12329138935374 0.97134733020136 
C17   C     0.31857692991681 0.94636672071047 0.74189496002260 
C18   C     0.29727877984309 0.66155250922480 0.83141058022053 
C19   C     0.29752726001086 0.59800705963881 0.89655746024128 
C20   C     0.35796951995034 0.08286308046558 0.03777206013042 
C21   C     0.31356162983646 0.71174008923943 0.01250092011583 
C22   C     0.33185520985148 0.87327734026813 0.05898554001799 
