data_stdin
_audit_creation_method 'critic2'
_audit_creation_date 2023-8-11
_chemical_formula_sum 'C22 H14'
_cell_formula_units_Z 2
_cell_length_a         5.6911916039
_cell_length_b         8.8455711802
_cell_length_c        15.1223511290
_cell_angle_alpha       104.0956
_cell_angle_beta        91.2160
_cell_angle_gamma        78.6865
_cell_volume           723.735284
_space_group_crystal_system triclinic
_space_group_IT_number 2
_space_group_name_H-M_alt 'P-1'
_space_group_name_Hall '-P 1'
loop_
_symmetry_equiv_pos_site_id
_symmetry_equiv_pos_as_xyz
 1 'x,y,z'
 2 '-x,-y,-z'
loop_
_atom_site_label
_atom_site_type_symbol
_atom_site_fract_x
_atom_site_fract_y
_atom_site_fract_z
H1    H     0.45649135923834 0.09005566991005 0.63649516971911 
H2    H     0.57300824981388 0.11634954957142 0.48616958967606 
H3    H     0.93040886045098 0.22962736006810 0.46803811003687 
H4    H     0.14388470935154 0.34484119956513 0.60601026031459 
H5    H     0.16987824929664 0.42377055983298 0.77228639015254 
H6    H     0.98657142016659 0.45404810019764 0.92407045971839 
H7    H     0.69899824022021 0.39811739960634 0.02057570978488 
H8    H     0.84225748983951 0.89159984967798 0.67646110001472 
H9    H     0.37534977997117 0.25812580972482 0.04096597977792 
H10   H     0.12354033933447 0.07112880056065 0.98004653029447 
H11   H     0.03421173938183 0.84438506975316 0.85962645033306 
H12   H     0.81661648048180 0.62779638001911 0.58063485975349 
H13   H     0.16743471059889 0.63693171961429 0.72387160978545 
H14   H     0.47400092046442 0.50101845974923 0.59965087989996 
C1    C     0.61260824006398 0.14057724964764 0.62991224027033 
C2    C     0.73980560060286 0.19477635988074 0.70903922033616 
C3    C     0.67383803030149 0.18250434955866 0.79895181000170 
C4    C     0.53087196058494 0.07418581036463 0.81605463988299 
C5    C     0.67799291050606 0.15508496998203 0.54530528008742 
C6    C     0.92508534962158 0.27896376015675 0.69984917973477 
C7    C     0.74624407034835 0.29185819022983 0.87524352021339 
C8    C     0.51548851939228 0.92163738062686 0.75499008033150 
C9    C     0.40685528048183 0.11345738988364 0.90196328028669 
C10   C     0.87720831997444 0.22282802951237 0.53539292980821 
C11   C     0.99631575035406 0.28549953021308 0.61183388025442 
C12   C     0.02313706986622 0.36474391979491 0.77964082973331 
C13   C     0.92478190966288 0.37896335049941 0.86349965008883 
C14   C     0.33137523928819 0.84103460975777 0.77094280983644 
C15   C     0.64263458042735 0.31316968028876 0.96321734012632 
C16   C     0.69043078027697 0.83874173935749 0.68567523980609 
C17   C     0.46544460945573 0.23453594935567 0.97473808968387 
C18   C     0.22548204091125 0.03009325990442 0.91571283027492 
C19   C     0.17827234975020 0.90443788015603 0.85016619998803 
C20   C     0.67620192953235 0.69032626991246 0.63171492995557 
C21   C     0.31450254981470 0.69248917009814 0.71185544028293 
C22   C     0.48348895025571 0.61752217048803 0.64301226995386 
