data_stdin
_audit_creation_method 'critic2'
_audit_creation_date 2023-8-11
_chemical_formula_sum 'C22 H14'
_cell_formula_units_Z 4
_cell_length_a         7.8465603984
_cell_length_b        16.1490059005
_cell_length_c        11.1818745190
_cell_angle_alpha        89.9999
_cell_angle_beta        90.0005
_cell_angle_gamma        90.0000
_cell_volume          1416.901727
_space_group_crystal_system orthorhombic
_space_group_IT_number 19
_space_group_name_H-M_alt 'P2_12_12_1'
_space_group_name_Hall 'P 2ac 2ab'
loop_
_symmetry_equiv_pos_site_id
_symmetry_equiv_pos_as_xyz
 1 'x,y,z'
 2 '-x,-1/2+y,-1/2-z'
 3 '-1/2+x,-1/2-y,-z'
 4 '-1/2-x,-y,-1/2+z'
loop_
_atom_site_label
_atom_site_type_symbol
_atom_site_fract_x
_atom_site_fract_y
_atom_site_fract_z
H1    H     0.55564870953047 0.74326209009651 0.10197256970988 
H2    H     0.53236905018263 0.88539862008771 0.03104972993608 
H3    H     0.38799043981822 0.91635835022332 0.83527160994347 
H4    H     0.29219093946055 0.80010330020930 0.70798408957869 
H5    H     0.25910852046416 0.65209338024225 0.67015153037229 
H6    H     0.31859785013419 0.50751061982982 0.72890206987973 
H7    H     0.43061925030262 0.40795124998280 0.86423789031315 
H8    H     0.25026392004041 0.70768390989489 0.14507119977198 
H9    H     0.56802993983691 0.37226276013051 0.05803117004247 
H10   H     0.66552113036667 0.41010157993127 0.25288842960403 
H11   H     0.66238245975391 0.50586409004443 0.42568171044595 
H12   H     0.18763631016407 0.78197088025363 0.32940639982215 
H13   H     0.53246721953975 0.62388322985282 0.52332886032807 
H14   H     0.33754485944560 0.74520106973239 0.51990635967438 
C1    C     0.49147459945597 0.75488234998379 0.01787312012006 
C2    C     0.42604840993951 0.68719525988850 0.95181708994301 
C3    C     0.43314503992316 0.60190494022618 0.99367188991524 
C4    C     0.47113077021136 0.57639487028097 0.11506400999276 
C5    C     0.47892464041885 0.83553321975751 0.97729983984775 
C6    C     0.36124771948695 0.70471210998974 0.83458435007992 
C7    C     0.40960265026802 0.53856704021952 0.90619698974881 
C8    C     0.43620968953690 0.62425649021358 0.22272442039044 
C9    C     0.53654287042513 0.49486441004820 0.13259700960867 
C10   C     0.40148987961472 0.85282515016496 0.86645698961437 
C11   C     0.34732629966285 0.78793007980059 0.79561910975008 
C12   C     0.31468209993128 0.63829248005323 0.75713377958306 
C13   C     0.34540598006186 0.55832770982035 0.79015278001544 
C14   C     0.50837235995610 0.59842318999373 0.33453530963631 
C15   C     0.45188578042196 0.45491988991431 0.93248521037686 
C16   C     0.31820617972873 0.69066076973183 0.22587203017473 
C17   C     0.52532719958911 0.43508071027716 0.03957467017720 
C18   C     0.60806275988394 0.47129527026195 0.24509413969839 
C19   C     0.60330613971091 0.52324835018473 0.34123025971929 
C20   C     0.28288715011957 0.73290169023141 0.33053843012008 
C21   C     0.47516613004392 0.64458156028697 0.43968295033866 
C22   C     0.36526699969969 0.71134269009892 0.43801944006067 
