data_stdin
_audit_creation_method 'critic2'
_audit_creation_date 2023-8-11
_chemical_formula_sum 'C22 H14'
_cell_formula_units_Z 4
_cell_length_a         8.5386060692
_cell_length_b        11.5571362503
_cell_length_c        17.8669667531
_cell_angle_alpha        90.0005
_cell_angle_beta        54.8046
_cell_angle_gamma        89.9999
_cell_volume          1440.826451
_space_group_crystal_system monoclinic
_space_group_IT_number 14
_space_group_name_H-M_alt 'P2_1/c'
_space_group_name_Hall '-P 2ybc'
loop_
_symmetry_equiv_pos_site_id
_symmetry_equiv_pos_as_xyz
 1 'x,y,z'
 2 '-x,-y,-z'
 3 '-x,-1/2+y,-1/2-z'
 4 'x,-1/2-y,-1/2+z'
loop_
_atom_site_label
_atom_site_type_symbol
_atom_site_fract_x
_atom_site_fract_y
_atom_site_fract_z
H1    H     0.86824656911813 0.24677666002523 0.16709874031542 
H2    H     0.55217918986623 0.32681856965962 0.22574447015125 
H3    H     0.49167293962069 0.42706280028493 0.12049945002078 
H4    H     0.75947161956742 0.45278410012842 0.95718995019332 
H5    H     0.09029810968395 0.42635458969947 0.83078965025646 
H6    H     0.42463099944580 0.38545573959214 0.77842763034250 
H7    H     0.64838312089115 0.33215149978044 0.81251820967195 
H8    H     0.91807342011655 0.07975915022320 0.06052086998015 
H9    H     0.71986116957552 0.23990144978021 0.91561586032612 
H10   H     0.62276794078827 0.13002130004144 0.04867861966727 
H11   H     0.38736660086754 0.00211047970405 0.17695778969432 
H12   H     0.72736401047384 0.91807420958120 0.16024859967342 
H13   H     0.09108509017440 0.89388216034435 0.25389692977983 
H14   H     0.80356734020076 0.82770986968235 0.26330905022936 
C1    C     0.84463206913513 0.28814582962318 0.11981357031659 
C2    C     0.99852917986495 0.29543518016533 0.02585047005573 
C3    C     0.19025255977050 0.25330398016205 0.98940247008268 
C4    C     0.23946853051516 0.17535190977040 0.03625596985428 
C5    C     0.66620466023998 0.33386329004448 0.15301855992648 
C6    C     0.96503248984921 0.35889230974616 0.96741586001167 
C7    C     0.34299296030519 0.30001352995333 0.90381480999369 
C8    C     0.11514459019713 0.08507067966609 0.09983101969445 
C9    C     0.42961688014166 0.18001620996499 0.01276344998796 
C10   C     0.63217614046034 0.39089472000713 0.09401923976417 
C11   C     0.78064649959557 0.40420602995071 0.00296354005560 
C12   C     0.12014712979753 0.38242857042363 0.87514977023518 
C13   C     0.30348027936923 0.35870951032418 0.84614167003825 
C14   C     0.16850584955152 0.02545624007995 0.15227468020853 
C15   C     0.53540796927948 0.29159577995038 0.87664778021486 
C16   C     0.95370139972056 0.04236471000531 0.10469668984061 
C17   C     0.57509517037965 0.24055253011560 0.93300641989361 
C18   C     0.47831870036519 0.11949734015568 0.06640411988825 
C19   C     0.34920121921016 0.04893698970852 0.13668847025248 
C20   C     0.84512254029856 0.95131574998292 0.16149894986600 
C21   C     0.04915769962364 0.93635066042221 0.21350880004458 
C22   C     0.88959698004504 0.89927680011218 0.21852391983978 
