data_stdin
_audit_creation_method 'critic2'
_audit_creation_date 2023-8-11
_chemical_formula_sum 'C22 H14'
_cell_formula_units_Z 4
_cell_length_a        10.0687924646
_cell_length_b         8.3018349012
_cell_length_c        19.3004360607
_cell_angle_alpha        89.9990
_cell_angle_beta        69.3776
_cell_angle_gamma        89.9995
_cell_volume          1509.935075
_space_group_crystal_system monoclinic
_space_group_IT_number 14
_space_group_name_H-M_alt 'P2_1/c'
_space_group_name_Hall '-P 2ybc'
loop_
_symmetry_equiv_pos_site_id
_symmetry_equiv_pos_as_xyz
 1 'x,y,z'
 2 '-x,-y,-z'
 3 '-x,-1/2+y,-1/2-z'
 4 'x,-1/2-y,-1/2+z'
loop_
_atom_site_label
_atom_site_type_symbol
_atom_site_fract_x
_atom_site_fract_y
_atom_site_fract_z
H1    H     0.60887519005585 0.54574444946109 0.67410492003295 
H2    H     0.38408723032300 0.58223436036648 0.65344591013981 
H3    H     0.17577169990408 0.70518715968435 0.75152834975424 
H4    H     0.19060037978763 0.77045567032293 0.87351705013963 
H5    H     0.31951400002047 0.76028782027210 0.96053664001149 
H6    H     0.52847811030940 0.66890889969851 0.98886543982548 
H7    H     0.75606842956722 0.53845091002555 0.95175627025168 
H8    H     0.68577735028576 0.84382079018665 0.68884313999407 
H9    H     0.97035392966057 0.42778834998711 0.85397495020981 
H10   H     0.10846164000596 0.38513827046858 0.72528378001360 
H11   H     0.16033102003743 0.44527907035013 0.59264574982675 
H12   H     0.76884094034021 0.95034100026136 0.56354780012517 
H13   H     0.11590383992040 0.61244885955136 0.49986127986370 
H14   H     0.98091393024131 0.83034938961412 0.46520847996418 
C1    C     0.51972604022745 0.60000945009589 0.71728490014291 
C2    C     0.53492499016784 0.64437523004242 0.78499080002334 
C3    C     0.66603730004090 0.62191584036561 0.79935775988466 
C4    C     0.80379116010090 0.59633204011753 0.74317119004135 
C5    C     0.39287826014170 0.62020072956747 0.70569445980561 
C6    C     0.41055092975332 0.69888074023556 0.84352290986218 
C7    C     0.65576001004872 0.61391587943491 0.87481552016338 
C8    C     0.84766710974881 0.65889278962762 0.66808047991825 
C9    C     0.90854232982686 0.51405354984540 0.76369113994216 
C10   C     0.27450731983595 0.68712686999408 0.76137079023029 
C11   C     0.28340954988986 0.72424232957861 0.82929754982863 
C12   C     0.41392369979613 0.71686261944293 0.91649173977754 
C13   C     0.52991281017553 0.66801300965743 0.93210758006025 
C14   C     0.97670961010486 0.60180145955076 0.61379713993366 
C15   C     0.76905257998577 0.54770234982894 0.89348292986966 
C16   C     0.77723452970430 0.78821792010933 0.64754003987266 
C17   C     0.88776947959342 0.48869762945124 0.83968113009784 
C18   C     0.03561720995181 0.45764537993429 0.70796721974498 
C19   C     0.06509563013342 0.49246532042524 0.63494233019017 
C20   C     0.82492011988420 0.84910378944066 0.57630603972269 
C21   C     0.02039797975030 0.66272073024271 0.54065139020306 
C22   C     0.94556696022110 0.78352965048828 0.52150753985062 
