data_stdin
_audit_creation_method 'critic2'
_audit_creation_date 2023-8-11
_chemical_formula_sum 'C22 H14'
_cell_formula_units_Z 4
_cell_length_a        16.7254319929
_cell_length_b        19.4355009379
_cell_length_c         4.4741852667
_cell_angle_alpha        89.9995
_cell_angle_beta        90.0013
_cell_angle_gamma        89.9996
_cell_volume          1454.410649
_space_group_crystal_system orthorhombic
_space_group_IT_number 33
_space_group_name_H-M_alt 'Pna2_1'
_space_group_name_Hall 'P 2c -2n'
loop_
_symmetry_equiv_pos_site_id
_symmetry_equiv_pos_as_xyz
 1 'x,y,z'
 2 '-x,-y,-1/2+z'
 3 '-1/2-x,-1/2+y,-1/2+z'
 4 '-1/2+x,-1/2-y,z'
loop_
_atom_site_label
_atom_site_type_symbol
_atom_site_fract_x
_atom_site_fract_y
_atom_site_fract_z
H1    H     0.13293225987385 0.89774539000572 0.99077504091391 
H2    H     0.02242002004626 0.81538631976321 0.99942654055231 
H3    H     0.02495654978609 0.71497091995237 0.34520883087227 
H4    H     0.14474713989489 0.69556694999765 0.66612480973943 
H5    H     0.27790031997289 0.72649667018336 0.82506669105003 
H6    H     0.39970782977474 0.79724023989734 0.75358122915060 
H7    H     0.47068697973697 0.88560806996871 0.49267811004512 
H8    H     0.12671356999641 0.95839582004401 0.49594119903276 
H9    H     0.47353519979321 0.98055260004734 0.11718544099998 
H10   H     0.40505080999094 0.06196398999899 0.80547261924706 
H11   H     0.28221427992456 0.12624553003879 0.67499777106613 
H12   H     0.01428456020336 0.03753609016707 0.44458489033526 
H13   H     0.14457985011880 0.15451705011450 0.78885105110058 
H14   H     0.01949876014702 0.13395770010744 0.07232874903182 
C1    C     0.13481730990062 0.85526101016802 0.14797857930737 
C2    C     0.20203419993903 0.84807737003771 0.33852641050052 
C3    C     0.26948985996371 0.89525809998057 0.33451151035496 
C4    C     0.26984936984079 0.96209659010253 0.19146796997039 
C5    C     0.07270310018863 0.80844006000911 0.15072250951197 
C6    C     0.20595112004764 0.78717670010975 0.51859462042146 
C7    C     0.34258261014478 0.87117572976650 0.46037584098519 
C8    C     0.20092135022534 0.00708826001447 0.16018237957383 
C9    C     0.34465362985186 0.98825571025130 0.09049277947354 
C10   C     0.07466286971526 0.75115341987679 0.34351378066053 
C11   C     0.14078921976724 0.74063686025126 0.52220572037872 
C12   C     0.27688762005070 0.77188484975419 0.68235994930851 
C13   C     0.34371365025210 0.81115870005979 0.64449707024474 
C14   C     0.20624833006674 0.06640673010599 0.97088625895796 
C15   C     0.41577434008484 0.90497948976698 0.39208066069724 
C16   C     0.13037777992570 0.99961550006394 0.33272055006480 
C17   C     0.41725587011418 0.95807529011497 0.19149557894822 
C18   C     0.34742901997142 0.04667085019553 0.89722553984278 
C19   C     0.27991767973009 0.08252701022798 0.82698812033018 
C20   C     0.06686763024020 0.04461996018932 0.30461188893012 
C21   C     0.13964854027003 0.11076893996413 0.93999817958225 
C22   C     0.07050611006956 0.09983699978768 0.10115968021352 
