data_stdin
_audit_creation_method 'critic2'
_audit_creation_date 2023-8-11
_chemical_formula_sum 'C22 H14'
_cell_formula_units_Z 4
_cell_length_a        11.3399125092
_cell_length_b        13.1016990703
_cell_length_c        10.9579503573
_cell_angle_alpha        89.9995
_cell_angle_beta        61.2831
_cell_angle_gamma        90.0013
_cell_volume          1427.803876
_space_group_crystal_system monoclinic
_space_group_IT_number 14
_space_group_name_H-M_alt 'P2_1/c'
_space_group_name_Hall '-P 2ybc'
loop_
_symmetry_equiv_pos_site_id
_symmetry_equiv_pos_as_xyz
 1 'x,y,z'
 2 '-x,-y,-z'
 3 '-x,-1/2+y,-1/2-z'
 4 'x,-1/2-y,-1/2+z'
loop_
_atom_site_label
_atom_site_type_symbol
_atom_site_fract_x
_atom_site_fract_y
_atom_site_fract_z
H1    H     0.77145601974789 0.30338810000653 0.67489947030722 
H2    H     0.98171851974335 0.26656513003332 0.67709585967222 
H3    H     0.14780456990282 0.14245954003769 0.50544432004591 
H4    H     0.08446442970402 0.04372006012173 0.35274657009415 
H5    H     0.91894406022210 0.99282588993103 0.28448055970820 
H6    H     0.68673433981550 0.00514810982377 0.31930169997301 
H7    H     0.46956018960476 0.08262196022414 0.42322592032936 
H8    H     0.86077536021646 0.38510807018244 0.42804657950955 
H9    H     0.31010276978377 0.21638689005295 0.57374059024087 
H10   H     0.26569355021436 0.37214122031454 0.69691659038269 
H11   H     0.34289751971429 0.53174006006728 0.75966463007367 
H12   H     0.93503119033023 0.55611751981960 0.45352735004068 
H13   H     0.52506647027703 0.64421913021723 0.72325864983891 
H14   H     0.76886314964861 0.68478802980846 0.60971900039749 
C1    C     0.84115081023783 0.24900771007645 0.60064055993024 
C2    C     0.80733439002619 0.20001768023722 0.50643606007272 
C3    C     0.68333784025173 0.22045976028740 0.50191972035291 
C4    C     0.60103789991721 0.31077014986574 0.55685736953491 
C5    C     0.96026609990109 0.22814195030698 0.60179650990909 
C6    C     0.89462248003345 0.12009004016122 0.42193670983597 
C7    C     0.63675172999209 0.14214795972229 0.44520017040181 
C8    C     0.64938224995273 0.41113464989466 0.56943162037714 
C9    C     0.46282953013389 0.30338382998145 0.59226855962302 
C10   C     0.05277876023836 0.15774413036106 0.50678225955410 
C11   C     0.01894368045148 0.10373610037521 0.41978025996250 
C12   C     0.85141147027183 0.05315062033756 0.34847964992788 
C13   C     0.72393481970208 0.06056249004141 0.36664069018950 
C14   C     0.55400685988867 0.48939989002703 0.64666677031826 
C15   C     0.50256360994002 0.14368832013027 0.46711626020590 
C16   C     0.78677285988622 0.43984804032988 0.49703645968805 
C17   C     0.41564947957930 0.21820519001984 0.54768828045990 
C18   C     0.37099974994407 0.38319638020537 0.66795530024940 
C19   C     0.41357898989186 0.47133307017044 0.70056232038857 
C20   C     0.82872309003759 0.53641084981023 0.51056908037775 
C21   C     0.59949506995032 0.58671096995884 0.66198502987678 
C22   C     0.73492726049505 0.60974356994719 0.59711604959275 
