data_stdin
_audit_creation_method 'critic2'
_audit_creation_date 2023-8-11
_chemical_formula_sum 'C22 H14'
_cell_formula_units_Z 8
_cell_length_a         4.8915316237
_cell_length_b        17.0903522093
_cell_length_c        35.7653655615
_cell_angle_alpha        90.0004
_cell_angle_beta        89.9926
_cell_angle_gamma        90.0050
_cell_volume          2989.912933
_space_group_crystal_system orthorhombic
_space_group_IT_number 61
_space_group_name_H-M_alt 'Pbca'
_space_group_name_Hall '-P 2ac 2ab'
loop_
_symmetry_equiv_pos_site_id
_symmetry_equiv_pos_as_xyz
 1 'x,y,z'
 2 '-x,-y,-z'
 3 '-1/2-x,-y,-1/2+z'
 4 '-1/2+x,y,-1/2-z'
 5 '-1/2+x,-1/2-y,-z'
 6 '-1/2-x,-1/2+y,z'
 7 '-x,-1/2+y,-1/2-z'
 8 'x,-1/2-y,-1/2+z'
loop_
_atom_site_label
_atom_site_type_symbol
_atom_site_fract_x
_atom_site_fract_y
_atom_site_fract_z
H1    H     0.73759811986473 0.62127846016831 0.13867535012062 
H2    H     0.66123478009241 0.50841863027884 0.17898956000921 
H3    H     0.26659654019462 0.50698334987910 0.22417884003586 
H4    H     0.98532459904929 0.62671445974536 0.23153898003359 
H5    H     0.88726059090642 0.76235409998977 0.21644181003907 
H6    H     0.02074618939090 0.88451327020935 0.18370022995786 
H7    H     0.31998620923623 0.95508563020844 0.14202954005029 
H8    H     0.29123482916218 0.62207653025543 0.09703763001219 
H9    H     0.69597469916866 0.95623678000417 0.09520601009685 
H10   H     0.00445096040989 0.88686404982460 0.05375468989903 
H11   H     0.14384369090148 0.76598313014736 0.02110993004781 
H12   H     0.36590091066380 0.51140186976499 0.05540976012327 
H13   H     0.04559699994566 0.63137786983347 0.00429334008640 
H14   H     0.75791463983156 0.51147804004251 0.01018509000912 
C1    C     0.56471680100221 0.62178536983120 0.15769834999821 
C2    C     0.39373700035090 0.68868475993641 0.15910521994876 
C3    C     0.43334899051744 0.75667387002116 0.13532787992391 
C4    C     0.59452102989801 0.75728352996502 0.10153305006655 
C5    C     0.52163916917068 0.55795490000755 0.18067734990833 
C6    C     0.19119340065956 0.69113766017077 0.18796751991775 
C7    C     0.31864051923410 0.82872233989790 0.14771185000007 
C8    C     0.63629087013644 0.69000711002764 0.07736229999023 
C9    C     0.70630541013242 0.82992449014157 0.08946361987038 
C10   C     0.30391610008234 0.55786996007343 0.20651133993623 
C11   C     0.14521481075685 0.62420328982267 0.21041605999619 
C12   C     0.04644082976151 0.76210325975063 0.19511037989409 
C13   C     0.11837193980912 0.82912204026860 0.17681257990394 
C14   C     0.84025367021571 0.69338320015847 0.04872550010033 
C15   C     0.40808463988590 0.90060924971307 0.13173869990029 
C16   C     0.46425059905985 0.62333445014028 0.07804807000182 
C17   C     0.61169056016961 0.90123688012985 0.10544731013118 
C18   C     0.90858213092836 0.83124647988837 0.06065266992308 
C19   C     0.98455268984051 0.76464988989409 0.04232558008614 
C20   C     0.50632808930743 0.56080087012854 0.05428590011519 
C21   C     0.88473286075896 0.62766030989410 0.02532032997863 
C22   C     0.72341831935076 0.56166201989456 0.02833967991339 
