data_stdin
_audit_creation_method 'critic2'
_audit_creation_date 2023-8-11
_chemical_formula_sum 'C22 H14'
_cell_formula_units_Z 4
_cell_length_a        13.1666819394
_cell_length_b         8.0874473733
_cell_length_c        13.7023435746
_cell_angle_alpha        89.9991
_cell_angle_beta        78.5959
_cell_angle_gamma        89.9984
_cell_volume          1430.285085
_space_group_crystal_system monoclinic
_space_group_IT_number 14
_space_group_name_H-M_alt 'P2_1/c'
_space_group_name_Hall '-P 2ybc'
loop_
_symmetry_equiv_pos_site_id
_symmetry_equiv_pos_as_xyz
 1 'x,y,z'
 2 '-x,-y,-z'
 3 '-1/2-x,-1/2+y,-1/2-z'
 4 '-1/2+x,-1/2-y,-1/2+z'
loop_
_atom_site_label
_atom_site_type_symbol
_atom_site_fract_x
_atom_site_fract_y
_atom_site_fract_z
H1    H     0.16052549976542 0.00402441971333 0.13415093988593 
H2    H     0.16050072006739 0.12423414059914 0.29857071000898 
H3    H     0.32335274972763 0.13785147939114 0.36437436987916 
H4    H     0.48450780025897 0.01055157040535 0.26706229976860 
H5    H     0.57213494030116 0.84472129938479 0.12831040971509 
H6    H     0.56117224027918 0.66783847033298 0.98276939034430 
H7    H     0.46331926026033 0.54697246950930 0.87190234996950 
H8    H     0.27385978017246 0.19379755968326 0.01464691997643 
H9    H     0.30150048995043 0.52809864059357 0.80459612013264 
H10   H     0.13894064999691 0.63758457054462 0.78664490977948 
H11   H     0.01022279023563 0.86579061952283 0.80786752998801 
H12   H     0.16896383017492 0.43832772022450 0.00127466984583 
H13   H     0.97246361034783 0.15483462016473 0.84863955008595 
H14   H     0.01326400962596 0.42004771016387 0.92319913008256 
C1    C     0.23211001002071 0.00698541988002 0.16202289979074 
C2    C     0.32298269032748 0.93963338939968 0.10258446022494 
C3    C     0.32427684975882 0.86078583981309 0.00695660996660 
C4    C     0.24513817968070 0.87887548042925 0.94781677033783 
C5    C     0.23193797974643 0.07464230957002 0.25462700034377 
C6    C     0.41396669030420 0.93470471012360 0.14505567007193 
C7    C     0.40696130973022 0.74836560955315 0.97226860027283 
C8    C     0.18172683978496 0.02552594022293 0.94474489032024 
C9    C     0.23414458979674 0.74871101039613 0.88049905009895 
C10   C     0.32393903982961 0.08080496061611 0.29228891980957 
C11   C     0.41318889024204 0.01106741044132 0.23814168026472 
C12   C     0.50238784000758 0.84327359027963 0.09678884019816 
C13   C     0.49677405979660 0.74732671046830 0.01611176980864 
C14   C     0.09646660010150 0.01882272002168 0.89396169991749 
C15   C     0.39963286988771 0.63313537941320 0.89560772990854 
C16   C     0.20627216030043 0.18183950953322 0.98090208027410 
C17   C     0.31156642996582 0.62465339036742 0.85712080993581 
C18   C     0.14715266020253 0.74474972060774 0.83266523008640 
C19   C     0.07742587977954 0.87144834951764 0.84313492980735 
C20   C     0.14691573042032 0.32042373018204 0.97340670962794 
C21   C     0.03629427981291 0.16217734046248 0.88826417990082 
C22   C     0.05990804995190 0.31043250981047 0.92827059981395 
