data_stdin
_audit_creation_method 'critic2'
_audit_creation_date 2023-8-11
_chemical_formula_sum 'C22 H14'
_cell_formula_units_Z 4
_cell_length_a        17.8558673612
_cell_length_b         8.1795630174
_cell_length_c        10.0550282606
_cell_angle_alpha        89.9988
_cell_angle_beta        80.2625
_cell_angle_gamma        89.9961
_cell_volume          1447.411183
_space_group_crystal_system monoclinic
_space_group_IT_number 5
_space_group_name_H-M_alt 'C2'
_space_group_name_Hall 'C 2y'
loop_
_symmetry_equiv_pos_site_id
_symmetry_equiv_pos_as_xyz
 1 'x,y,z'
 2 '-1/2-x,-1/2+y,-z'
 3 '-1/2+x,-1/2+y,z'
 4 '-x,y,-z'
loop_
_atom_site_label
_atom_site_type_symbol
_atom_site_fract_x
_atom_site_fract_y
_atom_site_fract_z
H1    H     0.33144501971884 0.00243199973726 0.53182761048713 
H2    H     0.34192270021084 0.03153581991624 0.28747826990549 
H3    H     0.23536993992601 0.15255922060558 0.18799201999410 
H4    H     0.11563255994463 0.22807413952271 0.33731251965353 
H5    H     0.03728217974485 0.23979330944167 0.56238566973772 
H6    H     0.01475482974598 0.14195033009172 0.79812615013500 
H7    H     0.05828401010608 0.99301162036687 0.98000486028245 
H8    H     0.32081161993133 0.30070993003295 0.63032265041206 
H9    H     0.16208281020461 0.87277543959150 0.08256718019335 
H10   H     0.29543068015992 0.82551671960350 0.08034317982138 
H11   H     0.43019364997977 0.88070134038545 0.98822399010319 
H12   H     0.44942879980000 0.40955799958039 0.58318838011498 
H13   H     0.52394558000960 0.05347747007484 0.84701937971850 
H14   H     0.55458322975999 0.27871153965597 0.68153501048743 
C1    C     0.28453817984948 0.05588353013493 0.49123314012841 
C2    C     0.21781536013177 0.10197707950788 0.58048923972376 
C3    C     0.20814077983510 0.07750733957685 0.72565735956336 
C4    C     0.26900574984639 0.04637384961381 0.80040247005743 
C5    C     0.29048013030674 0.07251073980920 0.35302700955015 
C6    C     0.15503263981056 0.15968251035495 0.52177573042190 
C7    C     0.13222107009262 0.07237307005268 0.79780535007667 
C8    C     0.34627950987051 0.10687767952754 0.76316761976818 
C9    C     0.25127126988430 0.96080466030306 0.92517256032472 
C10   C     0.23011953998285 0.13847084034636 0.29664133970407 
C11   C     0.16345511004603 0.18094829945264 0.38025606018774 
C12   C     0.08334981008088 0.18628828999497 0.60606655029155 
C13   C     0.07136561981336 0.13566655013154 0.73730886963321 
C14   C     0.40476388003210 0.04421064034980 0.83071433995718 
C15   C     0.11691941976866 0.00167596971802 0.92875989045630 
C16   C     0.36504383013910 0.24122745957947 0.67481347023192 
C17   C     0.17430768007069 0.93675872041459 0.98649534016956 
C18   C     0.31085063032049 0.89975035981576 0.99001404953774 
C19   C     0.38527632001022 0.93199594004887 0.93984030025032 
C20   C     0.43805766004770 0.30299108038875 0.64809593950884 
C21   C     0.47995043978485 0.10456884006444 0.79624961959974 
C22   C     0.49688542028356 0.23139494943639 0.70552143991337 
