data_stdin
_audit_creation_method 'critic2'
_audit_creation_date 2023-8-11
_chemical_formula_sum 'C22 H14'
_cell_formula_units_Z 4
_cell_length_a        11.1796185509
_cell_length_b        16.4706647301
_cell_length_c         7.7540861537
_cell_angle_alpha        90.0010
_cell_angle_beta        85.1701
_cell_angle_gamma        89.9995
_cell_volume          1422.734350
_space_group_crystal_system monoclinic
_space_group_IT_number 14
_space_group_name_H-M_alt 'P2_1/c'
_space_group_name_Hall '-P 2ybc'
loop_
_symmetry_equiv_pos_site_id
_symmetry_equiv_pos_as_xyz
 1 'x,y,z'
 2 '-x,-y,-z'
 3 '-x,-1/2+y,-1/2-z'
 4 'x,-1/2-y,-1/2+z'
loop_
_atom_site_label
_atom_site_type_symbol
_atom_site_fract_x
_atom_site_fract_y
_atom_site_fract_z
H1    H     0.24350247980765 0.40959055998539 0.73915726983629 
H2    H     0.15398037021862 0.40134447975023 0.03755715063005 
H3    H     0.09431949956438 0.52699962970784 0.20172587034346 
H4    H     0.13433424022138 0.66183023006162 0.06357524010200 
H5    H     0.21604730007016 0.74429479020593 0.82427836064421 
H6    H     0.35067988042870 0.75363281993855 0.55542384014803 
H7    H     0.47334707965367 0.69024540022015 0.32464485001995 
H8    H     0.08112983017793 0.46360814997978 0.55859448024900 
H9    H     0.54865038982453 0.56596274003571 0.16851160006620 
H10   H     0.53510762989288 0.42410056013939 0.11152130005091 
H11   H     0.41715742004680 0.29614186977115 0.12573888015991 
H12   H     0.94629660010554 0.34962772021104 0.51268494968478 
H13   H     0.22944955957983 0.22759188012299 0.20457703984464 
H14   H     0.02259520040884 0.22751649973912 0.34468485968076 
C1    C     0.21637306959647 0.46513917969908 0.80679311939174 
C2    C     0.23573130043716 0.54059062003781 0.72078191939279 
C3    C     0.29506400004393 0.54781144021849 0.54711990000724 
C4    C     0.31546951002758 0.48141377978413 0.42600073043112 
C5    C     0.16678676033363 0.46035772987086 0.97580489011648 
C6    C     0.20739072984281 0.61249765028695 0.81977685049875 
C7    C     0.34678953973108 0.62458694029027 0.49984636006783 
C8    C     0.23682212037290 0.41170729982821 0.41389126952832 
C9    C     0.41502527030270 0.48743800993209 0.29948193992581 
C10   C     0.13392383978395 0.53140931999431 0.06910336954069 
C11   C     0.15461890971726 0.60601535985198 0.99173989990016 
C12   C     0.24167972023857 0.69000648022021 0.75005280039949 
C13   C     0.31466784993793 0.69516106019665 0.60031342953463 
C14   C     0.27599950008235 0.34444599009070 0.30624125036837 
C15   C     0.43456610017274 0.63095090027988 0.35672041007945 
C16   C     0.11571991020897 0.41115730988577 0.48545754981941 
C17   C     0.47446537959076 0.56300091006799 0.26858179979977 
C18   C     0.45315037041348 0.41863932980009 0.19719047991793 
C19   C     0.38866823031894 0.34824821017783 0.20549535971275 
C20   C     0.03978036034535 0.34674234009238 0.46040998941789 
C21   C     0.19794584978825 0.27782623992349 0.28786957991518 
C22   C     0.08186083013049 0.27846749981866 0.36386897978793 
