data_stdin
_audit_creation_method 'critic2'
_audit_creation_date 2023-8-11
_chemical_formula_sum 'C22 H14'
_cell_formula_units_Z 2
_cell_length_a        14.2710976489
_cell_length_b         4.9694211796
_cell_length_c         9.8871743769
_cell_angle_alpha        90.0000
_cell_angle_beta        91.4634
_cell_angle_gamma        90.0015
_cell_volume           700.960772
_space_group_crystal_system monoclinic
_space_group_IT_number 4
_space_group_name_H-M_alt 'P2_1'
_space_group_name_Hall 'P 2yb'
loop_
_symmetry_equiv_pos_site_id
_symmetry_equiv_pos_as_xyz
 1 'x,y,z'
 2 '-x,-1/2+y,-z'
loop_
_atom_site_label
_atom_site_type_symbol
_atom_site_fract_x
_atom_site_fract_y
_atom_site_fract_z
H1    H     0.21334902351008 0.01427070966061 0.97950279807487 
H2    H     0.22885091904454 0.09203234225797 0.22406703562524 
H3    H     0.32632632136735 0.47182518170616 0.31434498889039 
H4    H     0.41568851285967 0.75664360825481 0.15485588931132 
H5    H     0.47176664327561 0.84194554037610 0.92871532645803 
H6    H     0.49070571617027 0.67806222889197 0.69544752187783 
H7    H     0.45516795343473 0.34620909778472 0.51935279364911 
H8    H     0.13409519386168 0.47242759446506 0.87976848158194 
H9    H     0.35473687532404 0.97425068288729 0.42798377196431 
H10   H     0.21304481312123 0.70548768256443 0.43637501085613 
H11   H     0.05679970307224 0.62158897936415 0.52978570042198 
H12   H     0.96813424135247 0.45530887367623 0.93259714604345 
H13   H     0.93016726704253 0.76883045340358 0.67065007214975 
H14   H     0.86488585661421 0.09332982231707 0.83491490131307 
C1    C     0.25545855663282 0.18192007071398 0.01684428983692 
C2    C     0.30293491367101 0.34527854244439 0.92313269550490 
C3    C     0.30014202062995 0.29289236627673 0.77859835179014 
C4    C     0.22885538921433 0.13686985318789 0.70873050023076 
C5    C     0.26461460083628 0.22509244734911 0.15464591418540 
C6    C     0.36471330584822 0.54815895878731 0.97619432059007 
C7    C     0.37685094412688 0.38851890496829 0.70301544599751 
C8    C     0.13157405134095 0.12350074145807 0.74807304372839 
C9    C     0.25315746877316 0.00611788829503 0.58640441861669 
C10   C     0.32028361996369 0.43847504453608 0.20562174031409 
C11   C     0.36946408291693 0.59720956045351 0.11737788791954 
C12   C     0.42723673725059 0.68216539275410 0.88817840075496 
C13   C     0.43689713816756 0.59251958619293 0.75876345750069 
C14   C     0.07016244630823 0.93302526938617 0.68305875922100 
C15   C     0.39428356182072 0.27603112133094 0.57374748154062 
C16   C     0.09105490488140 0.31216251213865 0.83682961902038 
C17   C     0.33818652669315 0.07451094972892 0.52252397027728 
C18   C     0.19043119006560 0.81502662295280 0.52523713699206 
C19   C     0.10368978399918 0.77009599645957 0.57580925757671 
C20   C     0.99692394847109 0.30366541797190 0.86598627656752 
C21   C     0.97476025933968 0.92107679899411 0.71888555819548 
C22   C     0.93846951626687 0.10289244770446 0.80918390640382 
