data_stdin
_audit_creation_method 'critic2'
_audit_creation_date 2023-8-11
_chemical_formula_sum 'C22 H14'
_cell_formula_units_Z 8
_cell_length_a        40.5763936139
_cell_length_b         8.9022222713
_cell_length_c         7.7618613140
_cell_angle_alpha        90.0002
_cell_angle_beta        89.9900
_cell_angle_gamma        90.0095
_cell_volume          2803.740044
_space_group_crystal_system triclinic
_space_group_IT_number 2
_space_group_name_H-M_alt 'P-1'
_space_group_name_Hall '-P 1'
loop_
_symmetry_equiv_pos_site_id
_symmetry_equiv_pos_as_xyz
 1 'x,y,z'
 2 '-x,-y,-z'
loop_
_atom_site_label
_atom_site_type_symbol
_atom_site_fract_x
_atom_site_fract_y
_atom_site_fract_z
H1    H     0.11938031005971 0.37711596048075 0.08973316958380 
H2    H     0.61939245007964 0.12293306987871 0.91031842064390 
H3    H     0.88062309997922 0.87710707958057 0.41025767051881 
H4    H     0.38060396995148 0.62292283993688 0.58967942028455 
H5    H     0.08139776989166 0.16665701989005 0.13401914005573 
H6    H     0.58142036010093 0.33335738968771 0.86600916051099 
H7    H     0.91859826007269 0.66667723023111 0.36596557028888 
H8    H     0.41858353000807 0.83337791023886 0.63397970937629 
H9    H     0.02487336000256 0.17256838974744 0.00913247996768 
H10   H     0.52488540009098 0.32740889036069 0.99087367957921 
H11   H     0.97512055991058 0.67261797960803 0.49087811041411 
H12   H     0.47512010997724 0.82745908031584 0.50913505938121 
H13   H     0.00589263991192 0.40179310026144 0.85532387982835 
H14   H     0.50588379011248 0.09818823049432 0.14471384052172 
H15   H     0.99410897000275 0.90184072038922 0.64471435039325 
H16   H     0.49411376002915 0.59823553054773 0.35532145045106 
H17   H     0.01461750002491 0.65574562981131 0.75770130003914 
H18   H     0.51459275987845 0.84426392986472 0.24239685994316 
H19   H     0.98539459007421 0.15578366990079 0.74234193969889 
H20   H     0.48539405001197 0.34429973975478 0.25764400033019 
H21   H     0.04852764005092 0.88890752958658 0.76743166991827 
H22   H     0.54849481996841 0.61112072045373 0.23271061949906 
H23   H     0.95149587990624 0.38893166027280 0.73260298935950 
H24   H     0.45148034998505 0.11114370009760 0.26732095053748 
H25   H     0.09549007993074 0.02153796979902 0.86382644047743 
H26   H     0.59545649006313 0.47850789991781 0.13631707005401 
H27   H     0.90454252990884 0.52153365012706 0.63620377030785 
H28   H     0.40450929007277 0.97850354948581 0.36370806942747 
H29   H     0.13214819009483 0.37855238958098 0.77725812970482 
H30   H     0.63213897005832 0.12149415982522 0.22282767952807 
H31   H     0.86785415993510 0.87852055968138 0.72272265030007 
H32   H     0.36785847998052 0.62146613985424 0.27716117936180 
H33   H     0.15143297989352 0.02654528999875 0.99504439998229 
H34   H     0.65140604997857 0.47351251961419 0.00505710947031 
H35   H     0.84859940989521 0.52652196992630 0.50499009009077 
H36   H     0.34855989994001 0.97349094002587 0.49497193036767 
H37   H     0.19839245002254 0.89994266022856 0.10623377952560 
H38   H     0.69838028009458 0.60014396017869 0.89383229999247 
H39   H     0.80163067990106 0.39990273010817 0.39383086025821 
H40   H     0.30159556003871 0.10010735043638 0.60623244967361 
H41   H     0.23368471007845 0.67129640045781 0.12172996940578 
H42   H     0.73368582008111 0.82880267968653 0.87833358961544 
H43   H     0.76632571000741 0.17124575016725 0.37834000961918 
H44   H     0.26630276005367 0.32875561015626 0.62173604004063 
H45   H     0.17216109002965 0.17699682022691 0.72755736023314 
H46   H     0.67215768995874 0.32307209971826 0.27252148016080 
H47   H     0.82783275001413 0.67694025966649 0.77241523040798 
H48   H     0.32784817011103 0.82301612971988 0.22745382967137 
H49   H     0.24540902996920 0.42288084047358 0.01113970052011 
H50   H     0.74541497987853 0.07722365019519 0.98893916987969 
H51   H     0.75459225011691 0.92281794973801 0.48890217953178 
H52   H     0.25458256998024 0.57716041007683 0.51109593056807 
H53   H     0.22879543012157 0.19345187024682 0.85087377997577 
H54   H     0.72880093999018 0.30664901994142 0.14920879009755 
H55   H     0.77119614990888 0.69337889959635 0.64913075049098 
H56   H     0.27120647006846 0.80657422989645 0.35078819978993 
C1    C     0.09502699007313 0.38165404046603 0.03229369944719 
C2    C     0.59503430007314 0.11837543986381 0.96775527042093 
C3    C     0.90497608000821 0.88166117972204 0.46770280017300 
C4    C     0.40496218004287 0.61838241023362 0.53224475049379 
C5    C     0.08574393989825 0.51128225038459 0.93774595975461 
C6    C     0.58573859008797 0.98874830031861 0.06231428968033 
C7    C     0.91426368012054 0.01128992991118 0.56226293948392 
C8    C     0.41425312003280 0.48875548991793 0.43769664042164 
C9    C     0.10709713995307 0.64124007025656 0.91683956043755 
C10   C     0.60708447991733 0.85880491031453 0.08323922979826 
C11   C     0.89291616989776 0.14123390975417 0.58317298994204 
C12   C     0.39290135996221 0.35879899984675 0.41677451020846 
C13   C     0.14217183999201 0.64401838012203 0.95112245034414 
C14   C     0.64216159007217 0.85603962999261 0.04895367935628 
C15   C     0.85784149990188 0.14399560986432 0.54889130024616 
C16   C     0.35782422994914 0.35601826944602 0.45106120004751 
C17   C     0.07364900009960 0.26291463963694 0.05782187038592 
C18   C     0.57366202991576 0.23709672951764 0.94220994984796 
C19   C     0.92634970009690 0.76293749000366 0.44217102965792 
C20   C     0.42633896993850 0.73711925964542 0.55778633993253 
C21   C     0.05230859004568 0.51827116003220 0.87839248010870 
C22   C     0.55229801009852 0.98174264965984 0.12166975024526 
C23   C     0.94769859003523 0.01829590986499 0.62162997014804 
C24   C     0.44769404992317 0.48176661034979 0.37835271944970 
C25   C     0.09151938993168 0.77946210983461 0.87307123025774 
C26   C     0.59149768000085 0.72057857026588 0.12703237998020 
C27   C     0.90850023998738 0.27946263020737 0.62695013046554 
C28   C     0.40848157007671 0.22057879999189 0.37298794028045 
C29   C     0.16456604993438 0.51765115008315 0.93052703012401 
C30   C     0.66456079006636 0.98241764998538 0.06954704029431 
C31   C     0.83544134987962 0.01761445053876 0.56948014973509 
C32   C     0.33543112008213 0.48238312006904 0.43046239983628 
C33   C     0.15673345997618 0.78476767039091 0.99386331061237 
C34   C     0.65671922987999 0.71529550008214 0.00621550954347 
C35   C     0.84328623008456 0.28474012042784 0.50616395025502 
C36   C     0.34325999000507 0.21526984972594 0.49381088058843 
C37   C     0.04153822996948 0.26687106008147 0.98909721017079 
C38   C     0.54154542995610 0.23312230944049 0.01092925993328 
C39   C     0.95845937003368 0.76690910960554 0.51091193041350 
C40   C     0.45845637997129 0.73316048009228 0.48907944985007 
C41   C     0.03112030000079 0.39344427008538 0.90227570061879 
C42   C     0.53111584988588 0.10655089988633 0.09776647942322 
C43   C     0.96888163989789 0.89348187983730 0.59774984046924 
C44   C     0.46888144998277 0.60658796044458 0.40225782988364 
C45   C     0.03981936006781 0.65406514026534 0.80594823968740 
C46   C     0.53979821992116 0.84595247046959 0.19414363971327 
C47   C     0.96019334006088 0.15409270048856 0.69408541050514 
C48   C     0.46018806002776 0.34597871983596 0.30588868944589 
C49   C     0.05841607988220 0.78157748999076 0.81091598944591 
C50   C     0.55839025002366 0.71845074051134 0.18920017947794 
C51   C     0.94160298002606 0.28159651007738 0.68911364997299 
C52   C     0.44158953008162 0.21846882973461 0.31082769984942 
C53   C     0.19785536004214 0.53015711953452 0.99084977025773 
C54   C     0.69785419004427 0.96992838946698 0.00922240000054 
C55   C     0.80215157988455 0.03010900017963 0.50917588054022 
C56   C     0.30213798988009 0.46988223964990 0.49080237940155 
C57   C     0.10831775011550 0.91800903972376 0.89611789053899 
C58   C     0.60829101002041 0.58203823000506 0.10399722954537 
C59   C     0.89170910001843 0.41800186959641 0.60390578009874 
C60   C     0.39168075011233 0.08203144985927 0.39602308042779 
C61   C     0.15650023002745 0.38741329017665 0.83402134047383 
C62   C     0.65649428988857 0.11265049980847 0.16605399969434 
C63   C     0.84350203987801 0.88737094003643 0.66596593972023 
C64   C     0.34350316995938 0.61261103034911 0.33393915029782 
C65   C     0.13917287001656 0.92072984036413 0.96633861942226 
C66   C     0.63915000994143 0.57932633962073 0.03375720994311 
C67   C     0.86085396007775 0.42070989992174 0.53368774000791 
C68   C     0.36082176991868 0.07930768962372 0.46626596011910 
C69   C     0.18951320993620 0.79157773947047 0.06027907044833 
C70   C     0.68950337997190 0.70850401990038 0.93979061982231 
C71   C     0.81050533993602 0.29153838989573 0.43976821007468 
C72   C     0.31047703002684 0.20846750006107 0.56025648970390 
C73   C     0.20895052008331 0.66681841012771 0.06737359970254 
C74   C     0.70894795003485 0.83327134954780 0.93269626953096 
C75   C     0.79106123998376 0.16677277959435 0.43267668055267 
C76   C     0.29103932003263 0.33322863954157 0.56735390972514 
C77   C     0.17904042001132 0.27372793964814 0.80535352054871 
C78   C     0.67903843994212 0.22634633977063 0.19472302998993 
C79   C     0.82095647010336 0.77367351957929 0.69463284989234 
C80   C     0.32096396005580 0.72629207947380 0.30526320029568 
C81   C     0.22030818011338 0.41063929967403 0.96331405063753 
C82   C     0.72031089008285 0.08945676996779 0.03676057999039 
C83   C     0.77969336002789 0.91057917964913 0.53670965047249 
C84   C     0.27968662996036 0.58939751961278 0.46325997012744 
C85   C     0.21118410004378 0.28371414016369 0.87296817053363 
C86   C     0.71118671004772 0.21637936951082 0.12710514952533 
C87   C     0.78881210998827 0.78364887038956 0.62703499980398 
C88   C     0.28881622005851 0.71631393013368 0.37289467957168 
