data_stdin
_audit_creation_method 'critic2'
_audit_creation_date 2023-8-11
_chemical_formula_sum 'C22 H14'
_cell_formula_units_Z 4
_cell_length_a         8.9616211263
_cell_length_b        11.8122836200
_cell_length_c        13.9225987891
_cell_angle_alpha        90.0000
_cell_angle_beta        76.6535
_cell_angle_gamma        90.0000
_cell_volume          1434.002644
_space_group_crystal_system monoclinic
_space_group_IT_number 14
_space_group_name_H-M_alt 'P2_1/c'
_space_group_name_Hall '-P 2ybc'
loop_
_symmetry_equiv_pos_site_id
_symmetry_equiv_pos_as_xyz
 1 'x,y,z'
 2 '-x,-y,-z'
 3 '-x,-1/2+y,-1/2-z'
 4 'x,-1/2-y,-1/2+z'
loop_
_atom_site_label
_atom_site_type_symbol
_atom_site_fract_x
_atom_site_fract_y
_atom_site_fract_z
H1    H     0.80114649968040 0.29069976030575 0.65052890023789 
H2    H     0.02331339012067 0.17376658969329 0.57450285976943 
H3    H     0.05509148026313 0.10126634034693 0.40320975027350 
H4    H     0.84873947059224 0.13455463973056 0.31399906974800 
H5    H     0.59660067998883 0.20589831964349 0.30968799983792 
H6    H     0.34851787958674 0.28483899019653 0.39993067018794 
H7    H     0.18782247029716 0.36151206010691 0.54562188000944 
H8    H     0.83888902031729 0.46802302030336 0.54709067965395 
H9    H     0.15046964949193 0.44168708006978 0.71439980995295 
H10   H     0.25108159966924 0.51753259989649 0.84485483965784 
H11   H     0.46793944952866 0.58742790990310 0.91037220989580 
H12   H     0.03709993993246 0.58188820004511 0.59738946015845 
H13   H     0.73096527985968 0.64542334020129 0.87862756973858 
H14   H     0.98934741973884 0.66698402976293 0.76412061977958 
C1    C     0.81315763014762 0.26097009971098 0.57531420001232 
C2    C     0.69833652005397 0.28882126032995 0.52416895030197 
C3    C     0.56266516007769 0.35506461011176 0.56787512980071 
C4    C     0.54528407957812 0.42680689988259 0.65416721978979 
C5    C     0.93820748968920 0.19464316040925 0.53282685992108 
C6    C     0.71053613951902 0.23725404013719 0.42929603012552 
C7    C     0.43308981025632 0.34124097992097 0.52573631982867 
C8    C     0.66909194025142 0.48651890997530 0.68433637971340 
C9    C     0.39353138023137 0.44985088978816 0.70970300969440 
C10   C     0.95517664047914 0.15196084015254 0.43647555986064 
C11   C     0.84185314040203 0.17217355970266 0.38633195965687 
C12   C     0.58517424998015 0.24365208002802 0.38232185023968 
C13   C     0.44866611972115 0.28823436966781 0.43173243999286 
C14   C     0.63920033997929 0.54342969009641 0.77780541985048 
C15   C     0.28506272007315 0.37641554972120 0.57857915994795 
C16   C     0.81573589977037 0.50333744015757 0.62088691972908 
C17   C     0.26479948002081 0.42154404025352 0.67100964028493 
C18   C     0.36861329029355 0.50571499984787 0.80294811968969 
C19   C     0.48772125990986 0.54608761037674 0.83864289025209 
C20   C     0.92749588003911 0.56744415017037 0.64889643013765 
C21   C     0.75769196019938 0.60453451010217 0.80660496029018 
C22   C     0.89986564994802 0.61679764028040 0.74344865982952 
