data_stdin
_audit_creation_method 'critic2'
_audit_creation_date 2023-8-11
_chemical_formula_sum 'C22 H14'
_cell_formula_units_Z 4
_cell_length_a         5.9916482391
_cell_length_b        18.8414174068
_cell_length_c        12.8006580387
_cell_angle_alpha        89.9910
_cell_angle_beta        81.1449
_cell_angle_gamma        89.9972
_cell_volume          1427.856577
_space_group_crystal_system monoclinic
_space_group_IT_number 14
_space_group_name_H-M_alt 'P2_1/c'
_space_group_name_Hall '-P 2ybc'
loop_
_symmetry_equiv_pos_site_id
_symmetry_equiv_pos_as_xyz
 1 'x,y,z'
 2 '-x,-y,-z'
 3 '-x,-1/2+y,-1/2-z'
 4 'x,-1/2-y,-1/2+z'
loop_
_atom_site_label
_atom_site_type_symbol
_atom_site_fract_x
_atom_site_fract_y
_atom_site_fract_z
H1    H     0.16083242932569 0.00949679991256 0.23909270002743 
H2    H     0.24158562008413 0.13456711022703 0.19796938015627 
H3    H     0.60195496969745 0.18980348974484 0.23367081962028 
H4    H     0.85723142967569 0.12039400981003 0.32989089002439 
H5    H     0.93684693969671 0.01539366987415 0.42561641997442 
H6    H     0.81270613991281 0.89833506983825 0.50282782970713 
H7    H     0.55414182076383 0.80235351015974 0.52526132023625 
H8    H     0.47617908056222 0.94036156001068 0.11368716985814 
H9    H     0.21567810981867 0.73955120992463 0.48077518009670 
H10   H     0.92134595951031 0.72864505987217 0.37542835962010 
H11   H     0.73511438980644 0.76486951991603 0.22299751982281 
H12   H     0.33175843966010 0.95834695998126 0.94581185971120 
H13   H     0.74445920077596 0.83352328975036 0.06067994994959 
H14   H     0.95276639034244 0.91282753002339 0.92295442974017 
C1    C     0.31772529997966 0.03227499020257 0.25609897030253 
C2    C     0.46864005985473 0.98937997986215 0.30360787964864 
C3    C     0.42470621063664 0.91525160998933 0.33177763989808 
C4    C     0.26373145025763 0.87033710004505 0.29010455021094 
C5    C     0.36309000065415 0.10303038980060 0.23297214969595 
C6    C     0.66015171917559 0.02403731976269 0.33537973026927 
C7    C     0.53844302000281 0.88679822977680 0.41226988035856 
C8    C     0.18804612034394 0.88004101999907 0.18847068993377 
C9    C     0.17778447019426 0.81002491980072 0.35058057018185 
C10   C     0.56366549006115 0.13472010981887 0.25490863993045 
C11   C     0.70814953034859 0.09563434008250 0.30651906020618 
C12   C     0.79111430060038 0.98827614022050 0.40314540001307 
C13   C     0.72438019933186 0.92366340989545 0.44450953036410 
C14   C     0.98863133947683 0.84423648012968 0.16767257030067 
C15   C     0.46574415920409 0.82178013984207 0.46272977005244 
C16   C     0.31232922074468 0.91889674990302 0.10408841971585 
C17   C     0.28126605049451 0.78681426022694 0.43753255017684 
C18   C     0.98802990048689 0.77212730007270 0.32384682011910 
C19   C     0.88757518020842 0.79135952014121 0.23936509003556 
C20   C     0.23126594051503 0.92923443016979 0.00981509995585 
C21   C     0.90264676942252 0.85860037022355 0.07265517035934 
C22   C     0.01939053060951 0.90163405009753 0.99559556967695 
