data_stdin
_audit_creation_method 'critic2'
_audit_creation_date 2023-8-11
_chemical_formula_sum 'C22 H14'
_cell_formula_units_Z 4
_cell_length_a        17.3005040602
_cell_length_b        16.3737069516
_cell_length_c         5.1283307905
_cell_angle_alpha        89.9994
_cell_angle_beta        89.9992
_cell_angle_gamma        89.9991
_cell_volume          1452.719615
_space_group_crystal_system orthorhombic
_space_group_IT_number 19
_space_group_name_H-M_alt 'P2_12_12_1'
_space_group_name_Hall 'P 2ac 2ab'
loop_
_symmetry_equiv_pos_site_id
_symmetry_equiv_pos_as_xyz
 1 'x,y,z'
 2 '-1/2+x,-1/2-y,-z'
 3 '-1/2-x,-y,-1/2+z'
 4 '-x,-1/2+y,-1/2-z'
loop_
_atom_site_label
_atom_site_type_symbol
_atom_site_fract_x
_atom_site_fract_y
_atom_site_fract_z
H1    H     0.87082377976946 0.29982047006522 0.78413621998006 
H2    H     0.96792523021361 0.40124457003581 0.90650487037815 
H3    H     0.94905596002138 0.48896957005810 0.30113040018474 
H4    H     0.82589251996585 0.47937786976630 0.54987229957789 
H5    H     0.69655625989951 0.42366799027733 0.60334043061245 
H6    H     0.58932626014281 0.33889877012992 0.43033929071207 
H7    H     0.53797063975606 0.24666331977968 0.10890933925860 
H8    H     0.87623680011334 0.19858977991774 0.18185442084375 
H9    H     0.55639590992893 0.15735965020641 0.72204141064344 
H10   H     0.64034845971760 0.08648758992581 0.42146389073203 
H11   H     0.76991858981095 0.03413444996668 0.30459378080929 
H12   H     0.99631937986882 0.12274308007930 0.11965206932564 
H13   H     0.90238082005665 0.00947503976441 0.43075336093901 
H14   H     0.01319680007180 0.03074223988033 0.73480873910239 
C1    C     0.86191092010640 0.33630662976807 0.95837238040568 
C2    C     0.79369931977404 0.32493604021503 0.10689348056076 
C3    C     0.73519522027205 0.26487070973983 0.03972337020375 
C4    C     0.74719655015870 0.19619884030160 0.86766459083233 
C5    C     0.91642216989116 0.39417990014538 0.02640242030776 
C6    C     0.77954844004924 0.38107514996670 0.31589861990594 
C7    C     0.65943709990555 0.27769082016196 0.14035626927352 
C8    C     0.82023651993534 0.15374266969496 0.83211224022518 
C9    C     0.68152954005865 0.16311752984779 0.73768971040685 
C10   C     0.90528183986333 0.44431242991644 0.24669546005761 
C11   C     0.83718247998140 0.43855896009771 0.38629265081778 
C12   C     0.70594928025369 0.38179791998635 0.44152240047157 
C13   C     0.64714708003702 0.33462490973240 0.34736791040410 
C14   C     0.82767712022120 0.09538227002734 0.62573385021121 
C15   C     0.59550941975847 0.23503015021722 0.03117686918033 
C16   C     0.88246418971968 0.16014954012212 0.01074503951041 
C17   C     0.60581470018444 0.18464491971455 0.82100909008757 
C18   C     0.69130761999103 0.10619704021112 0.52934236975321 
C19   C     0.76257067998779 0.07646875987052 0.46609323085501 
C20   C     0.95008332012631 0.11651498989372 0.97695454989389 
C21   C     0.89822426017350 0.05269710001495 0.59166336999082 
C22   C     0.95914777014357 0.06371203989500 0.76202133073368 
