data_stdin
_audit_creation_method 'critic2'
_audit_creation_date 2023-8-11
_chemical_formula_sum 'C22 H14'
_cell_formula_units_Z 4
_cell_length_a        15.4092270480
_cell_length_b        11.4789312500
_cell_length_c         8.3721680562
_cell_angle_alpha        90.0000
_cell_angle_beta        93.0011
_cell_angle_gamma        90.0002
_cell_volume          1478.850249
_space_group_crystal_system monoclinic
_space_group_IT_number 14
_space_group_name_H-M_alt 'P2_1/c'
_space_group_name_Hall '-P 2ybc'
loop_
_symmetry_equiv_pos_site_id
_symmetry_equiv_pos_as_xyz
 1 'x,y,z'
 2 '-x,-y,-z'
 3 '-x,-1/2+y,-1/2-z'
 4 'x,-1/2-y,-1/2+z'
loop_
_atom_site_label
_atom_site_type_symbol
_atom_site_fract_x
_atom_site_fract_y
_atom_site_fract_z
H1    H     0.14865784018709 0.10322227972430 0.45531533017903 
H2    H     0.06075050028994 0.92626454003673 0.42309492983572 
H3    H     0.11625715023766 0.73624748005636 0.52920200993628 
H4    H     0.26683800005729 0.72402478037775 0.65267366942871 
H5    H     0.40848039994828 0.81184876034431 0.70827832996688 
H6    H     0.50669790019040 0.98078333992532 0.68739499990391 
H7    H     0.53211708983009 0.17742526017303 0.61124275962684 
H8    H     0.15855627979912 0.12827533999688 0.76184691955352 
H9    H     0.47764461998337 0.37307467997671 0.52452547021329 
H10   H     0.36168372021897 0.50790791008836 0.47857905958316 
H11   H     0.20741766968746 0.56419094993342 0.49366220992223 
H12   H     0.01372601974302 0.19813179011960 0.81965394025674 
H13   H     0.06455438031814 0.52280402027991 0.58646285997339 
H14   H     0.96180207017277 0.39306457961604 0.72203732025767 
C1    C     0.17418968011319 0.02168183967863 0.50367385046814 
C2    C     0.25804341970341 0.01953534025626 0.58149034975891 
C3    C     0.31232759020905 0.12269472976214 0.60245915949037 
C4    C     0.28184682973781 0.24185575012949 0.59279198000398 
C5    C     0.12471281003142 0.92166258025079 0.48445516997675 
C6    C     0.29293614020650 0.90784465990045 0.62655179950124 
C7    C     0.40359471007259 0.10386571982855 0.62477577998052 
C8    C     0.19525856988353 0.28075409999144 0.62957908006268 
C9    C     0.34264257025634 0.32979235038528 0.55433196974767 
C10   C     0.15657181023556 0.81389655978732 0.54289951040416 
C11   C     0.23980161972504 0.80725361999928 0.61177571989402 
C12   C     0.38268047009906 0.89726236981717 0.67490730972098 
C13   C     0.43675959019037 0.99095614984092 0.66543515954769 
C14   C     0.16862972998612 0.39728706001959 0.59024321961886 
C15   C     0.46281207986403 0.19645543973039 0.60104163024081 
C16   C     0.13738531996905 0.21267348998016 0.71661050960097 
C17   C     0.43290716980015 0.30401570002629 0.55494227943059 
C18   C     0.31404398976884 0.44550893005372 0.51795513977013 
C19   C     0.22916807983045 0.47699178987145 0.52781450027346 
C20   C     0.05539412014246 0.25218403008830 0.74922340039165 
C21   C     0.08348373984291 0.43442337028167 0.62031329047769 
C22   C     0.02658684010343 0.36280564980703 0.69623463012525 
