data_stdin
_audit_creation_method 'critic2'
_audit_creation_date 2023-8-11
_chemical_formula_sum 'C22 H14'
_cell_formula_units_Z 8
_cell_length_a        21.3297440436
_cell_length_b        17.6936643706
_cell_length_c         7.7246055205
_cell_angle_alpha        89.9992
_cell_angle_beta        76.8838
_cell_angle_gamma        89.9989
_cell_volume          2839.222707
_space_group_crystal_system monoclinic
_space_group_IT_number 15
_space_group_name_H-M_alt 'C2/c'
_space_group_name_Hall '-C 2yc'
loop_
_symmetry_equiv_pos_site_id
_symmetry_equiv_pos_as_xyz
 1 'x,y,z'
 2 '-1/2-x,-1/2-y,-z'
 3 '-x,y,-1/2-z'
 4 '-1/2+x,-1/2-y,-1/2+z'
 5 '-1/2+x,-1/2+y,z'
 6 '-x,-y,-z'
 7 '-1/2-x,-1/2+y,-1/2-z'
 8 'x,-y,-1/2+z'
loop_
_atom_site_label
_atom_site_type_symbol
_atom_site_fract_x
_atom_site_fract_y
_atom_site_fract_z
H1    H     0.25639005985279 0.68639573026296 0.90064368047732 
H2    H     0.33774041020287 0.78419250006395 0.90214666967289 
H3    H     0.44929194007495 0.76831933990649 0.72330793058620 
H4    H     0.48030649014694 0.64922085000259 0.55495478951323 
H5    H     0.45396719988599 0.52358597987090 0.46600301944143 
H6    H     0.38011983003575 0.41333557001507 0.52465157028010 
H7    H     0.28239181984088 0.35677136021494 0.67917274041411 
H8    H     0.23534132009358 0.68563704986437 0.59870450987884 
H9    H     0.17201684004824 0.36676272993381 0.87090250004624 
H10   H     0.08400644980699 0.44068898017496 0.02749436993449 
H11   H     0.02310968021568 0.56128922022617 0.06574529001860 
H12   H     0.16611271985159 0.79544245017664 0.58784415054182 
H13   H     0.01088328980840 0.68800112018505 0.95679456061696 
H14   H     0.05468786003681 0.79959783019042 0.77354611042598 
C1    C     0.30452092998029 0.67876658009265 0.81906065024934 
C2    C     0.31916316976544 0.61139094025107 0.71862742063153 
C3    C     0.27307416978387 0.55026618974953 0.72516150025049 
C4    C     0.20432482978449 0.55614257001022 0.79681556037434 
C5    C     0.35024353982448 0.73386473021717 0.82072959991740 
C6    C     0.38483877992482 0.60069233011792 0.62541631957376 
C7    C     0.29891898980500 0.47745264973469 0.67188396960934 
C8    C     0.16560133025229 0.62368861987194 0.79436009946861 
C9    C     0.17047086006764 0.48892261982056 0.86286395036319 
C10   C     0.41369838010580 0.72454309972835 0.72086384988077 
C11   C     0.43061092979600 0.65870325022237 0.62601506026184 
C12   C     0.40480460009390 0.52965654026255 0.54403002999900 
C13   C     0.36401928998038 0.46931019986425 0.57449514049176 
C14   C     0.09968180006055 0.62454011996192 0.89118415032833 
C15   C     0.26079397008070 0.41156682995635 0.71942566008377 
C16   C     0.18729446986635 0.68677609990097 0.68370201027903 
C17   C     0.19988365022827 0.41709374972704 0.82295979997468 
C18   C     0.10579027022123 0.49257090027830 0.96529868938281 
C19   C     0.07224549985105 0.55881114984846 0.98590016027745 
C20   C     0.14834236005220 0.74859280984156 0.67665749937033 
C21   C     0.06097418011171 0.68898283988659 0.88367712937479 
C22   C     0.08490239006975 0.75059168988399 0.78012714940023 
