data_stdin
_audit_creation_method 'critic2'
_audit_creation_date 2023-8-11
_chemical_formula_sum 'C22 H14'
_cell_formula_units_Z 2
_cell_length_a         7.7285254638
_cell_length_b         8.9021436910
_cell_length_c        11.6253612754
_cell_angle_alpha        90.5399
_cell_angle_beta       117.1682
_cell_angle_gamma        89.4696
_cell_volume           711.541929
_space_group_crystal_system triclinic
_space_group_IT_number 2
_space_group_name_H-M_alt 'P-1'
_space_group_name_Hall '-P 1'
loop_
_symmetry_equiv_pos_site_id
_symmetry_equiv_pos_as_xyz
 1 'x,y,z'
 2 '-x,-y,-z'
loop_
_atom_site_label
_atom_site_type_symbol
_atom_site_fract_x
_atom_site_fract_y
_atom_site_fract_z
H1    H     0.42362810987244 0.12860666953901 0.02148034027447 
H2    H     0.58012962979783 0.92283781968475 0.17398809049439 
H3    H     0.61725994008503 0.93726577052976 0.39752428008160 
H4    H     0.51437097072695 0.16863622022940 0.47125814027670 
H5    H     0.37609123986528 0.42080748960670 0.43104922018869 
H6    H     0.29381403060151 0.64997065976959 0.29551794002226 
H7    H     0.26588340002007 0.77698024944340 0.10823439986783 
H8    H     0.07826640058270 0.13044820961997 0.97950930042691 
H9    H     0.23543145982087 0.77256214979849 0.88579901041717 
H10   H     0.20369098945501 0.63881283050985 0.69906383974590 
H11   H     0.11609682063334 0.40664068022303 0.56461923015867 
H12   H     0.92093943934382 0.92181927999730 0.82925013984648 
H13   H     0.97900900987507 0.15581110031112 0.52767348993714 
H14   H     0.87946862017886 0.92871034955577 0.60473658024779 
C1    C     0.43550205930687 0.13621180048214 0.11798458976240 
C2    C     0.36513538051893 0.26708982961653 0.15371603983402 
C3    C     0.28267413011385 0.39454163944019 0.06789494009030 
C4    C     0.21650306985656 0.39234373024348 0.92951381025844 
C5    C     0.52412777993382 0.02034498971856 0.20366576002604 
C6    C     0.39998783039509 0.27859548995974 0.28570493039176 
C7    C     0.28308385002447 0.53518817959795 0.12742909035876 
C8    C     0.13337082003500 0.26319060992424 0.84497773972854 
C9    C     0.21623433977256 0.53050037044728 0.86863070018086 
C10   C     0.54743010975475 0.02921541037766 0.33087602007512 
C11   C     0.48787306013868 0.15710858945537 0.37112445956840 
C12   C     0.35867318975490 0.41605490987627 0.33263907981291 
C13   C     0.31185397026023 0.54159010053939 0.25780175002324 
C14   C     0.09600883066254 0.27045208055164 0.71240119019457 
C15   C     0.25979765061708 0.67125282948309 0.05884701993227 
C16   C     0.06466512960138 0.13481395953103 0.88254863997217 
C17   C     0.24076663951691 0.66884842976723 0.93609709988792 
C18   C     0.18556466975180 0.53239891947788 0.73781928999100 
C19   C     0.13620448029452 0.40517196989358 0.66369767977046 
C20   C     0.97544574998410 0.01736128045032 0.79811962951879 
C21   C     0.00737509020933 0.14741904953393 0.62823356970210 
C22   C     0.94968760010383 0.02199289032624 0.67029896950796 
