data_stdin
_audit_creation_method 'critic2'
_audit_creation_date 2023-8-11
_chemical_formula_sum 'C22 H14'
_cell_formula_units_Z 8
_cell_length_a        22.7099007471
_cell_length_b        16.7940422606
_cell_length_c         7.5415988923
_cell_angle_alpha        90.0018
_cell_angle_beta        90.9431
_cell_angle_gamma        89.9999
_cell_volume          2875.908566
_space_group_crystal_system monoclinic
_space_group_IT_number 15
_space_group_name_H-M_alt 'C2/c'
_space_group_name_Hall '-C 2yc'
loop_
_symmetry_equiv_pos_site_id
_symmetry_equiv_pos_as_xyz
 1 'x,y,z'
 2 '-x,-y,-z'
 3 '-x,y,-1/2-z'
 4 '-1/2+x,-1/2-y,-1/2+z'
 5 '-1/2+x,-1/2+y,z'
 6 '-1/2-x,-1/2-y,-z'
 7 '-1/2-x,-1/2+y,-1/2-z'
 8 'x,-y,-1/2+z'
loop_
_atom_site_label
_atom_site_type_symbol
_atom_site_fract_x
_atom_site_fract_y
_atom_site_fract_z
H1    H     0.36451721894759 0.83228216216649 0.72789933227764 
H2    H     0.40740444156177 0.84723409985645 0.02654707635079 
H3    H     0.46036410314434 0.73438736857830 0.17161374325479 
H4    H     0.46686012138038 0.60405032919166 0.01593449302576 
H5    H     0.43559443498267 0.51625762570446 0.77652295837702 
H6    H     0.36685643643712 0.49143597147887 0.52457499590588 
H7    H     0.29363125770310 0.53756074400862 0.31533566125597 
H8    H     0.44970689392410 0.80621123856732 0.50769176042702 
H9    H     0.23566782790178 0.64781433253283 0.17712211110764 
H10   H     0.21970982642842 0.78730342103031 0.12646367057333 
H11   H     0.25543931998845 0.92637222625004 0.13798994880238 
H12   H     0.49552685941953 0.93465942660775 0.44902547752473 
H13   H     0.33635172656679 0.01819622544424 0.19452008815299 
H14   H     0.43814560561437 0.04435404631460 0.30227932043848 
C1    C     0.38806637719317 0.78256660116872 0.78775929591253 
C2    C     0.39078217771757 0.70939762435503 0.69428957147801 
C3    C     0.36046604442181 0.69641563150308 0.52537156427373 
C4    C     0.33802298982004 0.75871372247563 0.41061257206310 
C5    C     0.41234702062968 0.79117892538652 0.95590385733252 
C6    C     0.41824471017773 0.64354361386584 0.78353429611121 
C7    C     0.34709686774767 0.61616369120425 0.47889602992215 
C8    C     0.36460098233850 0.83682521903487 0.39178978083535 
C9    C     0.28931876921479 0.74057533225957 0.29652615376164 
C10   C     0.44200561559920 0.72710386790470 0.03847801919322 
C11   C     0.44523816333146 0.65478030579603 0.95243232232631 
C12   C     0.41322063870137 0.56551998480709 0.70983976045560 
C13   C     0.37589612464073 0.55196083049541 0.56921976006114 
C14   C     0.33376712943895 0.89764428795050 0.29449864610084 
C15   C     0.30321359063733 0.59949271345973 0.34730839492969 
C16   C     0.42356897283805 0.85283015724435 0.44484130803185 
C17   C     0.27200276428256 0.66003763871000 0.26910303997810 
C18   C     0.25907121629231 0.80270823638529 0.20329532829341 
C19   C     0.27893424047551 0.87933537006712 0.20908537687251 
C20   C     0.44950280423642 0.92565381395533 0.41245764949851 
C21   C     0.36054180692231 0.97293047738557 0.26948073607285 
C22   C     0.41750121970303 0.98710262030517 0.32787811597108 
