data_stdin
_audit_creation_method 'critic2'
_audit_creation_date 2023-8-11
_chemical_formula_sum 'C22 H14'
_cell_formula_units_Z 4
_cell_length_a         6.7413701964
_cell_length_b        13.6514021300
_cell_length_c        15.4705225328
_cell_angle_alpha        89.9998
_cell_angle_beta        89.1227
_cell_angle_gamma        89.9994
_cell_volume          1423.572228
_space_group_crystal_system monoclinic
_space_group_IT_number 14
_space_group_name_H-M_alt 'P2_1/c'
_space_group_name_Hall '-P 2ybc'
loop_
_symmetry_equiv_pos_site_id
_symmetry_equiv_pos_as_xyz
 1 'x,y,z'
 2 '-x,-y,-z'
 3 '-x,-1/2+y,-1/2-z'
 4 'x,-1/2-y,-1/2+z'
loop_
_atom_site_label
_atom_site_type_symbol
_atom_site_fract_x
_atom_site_fract_y
_atom_site_fract_z
H1    H     0.29063760072373 0.19969284988503 0.78615928991911 
H2    H     0.50311259071094 0.34351134017447 0.81255643010569 
H3    H     0.83484140977600 0.32363172009008 0.87727422003235 
H4    H     0.94110994060813 0.15868815993829 0.92857786982371 
H5    H     0.86612279967577 0.98875339986276 0.95884652022261 
H6    H     0.62448450053055 0.85231334004336 0.96076496009714 
H7    H     0.30658262045532 0.78550149030501 0.92537756032125 
H8    H     0.50616332980063 0.10292172018514 0.67424441998471 
H9    H     0.98577584953104 0.79656080003478 0.85023992999626 
H10   H     0.77585126074668 0.87361999983034 0.74923202970030 
H11   H     0.72431576036518 0.98868870964237 0.62708233004744 
H12   H     0.47752297057738 0.18100175989738 0.53225300024542 
H13   H     0.86164536033733 0.10174904030047 0.52317155996874 
H14   H     0.15270053970919 0.18960121989219 0.45885220010123 
C1    C     0.43501748043341 0.18983780999207 0.81535762991655 
C2    C     0.49707086990944 0.09400039975819 0.83786115020152 
C3    C     0.37726679989488 0.00717908011852 0.82326211009362 
C4    C     0.21466786000500 0.00074778015018 0.76342270983480 
C5    C     0.55323483942242 0.27065052023876 0.83057960995385 
C6    C     0.67833506008153 0.08507129966760 0.88431400007315 
C7    C     0.41695064940404 0.92393756032663 0.87591500997224 
C8    C     0.19915397004119 0.05609577014358 0.68321083004914 
C9    C     0.06736199963032 0.92786757975277 0.77921434990139 
C10   C     0.74061468943325 0.25977460977774 0.86856422982262 
C11   C     0.80068744043338 0.16825637970322 0.89560203982330 
C12   C     0.72737409061792 0.99437834034823 0.92416749003383 
C13   C     0.59561936037277 0.91863805994363 0.92405028971124 
C14   C     0.01809600024856 0.05274272999081 0.63582827996863 
C15   C     0.27576662062381 0.84677379025368 0.88276887973462 
C16   C     0.36322380063675 0.10362131992080 0.64285796969346 
C17   C     0.09954976972379 0.85234093998421 0.84067842012547 
C18   C     0.88898220941668 0.92680475026088 0.73076510980774 
C19   C     0.86057987035612 0.99006862012396 0.66394529975959 
C20   C     0.34695883997881 0.14883507028112 0.56325811028035 
C21   C     0.00217609925769 0.10466391012376 0.55697718010453 
C22   C     0.16368846029630 0.15250803014577 0.52088672985625 
