data_stdin
_audit_creation_method 'critic2'
_audit_creation_date 2023-8-11
_chemical_formula_sum 'C22 H14'
_cell_formula_units_Z 4
_cell_length_a        17.3669950742
_cell_length_b        11.6363678512
_cell_length_c         7.2758196882
_cell_angle_alpha        90.0009
_cell_angle_beta        80.1560
_cell_angle_gamma        90.0009
_cell_volume          1448.713164
_space_group_crystal_system monoclinic
_space_group_IT_number 14
_space_group_name_H-M_alt 'P2_1/c'
_space_group_name_Hall '-P 2ybc'
loop_
_symmetry_equiv_pos_site_id
_symmetry_equiv_pos_as_xyz
 1 'x,y,z'
 2 '-x,-y,-z'
 3 '-x,-1/2+y,-1/2-z'
 4 'x,-1/2-y,-1/2+z'
loop_
_atom_site_label
_atom_site_type_symbol
_atom_site_fract_x
_atom_site_fract_y
_atom_site_fract_z
H1    H     0.30435602989254 0.16171736027620 0.63480120013737 
H2    H     0.43429152022211 0.24721982987011 0.58044882949554 
H3    H     0.54902969004039 0.13885565982043 0.66183193010924 
H4    H     0.52689627021917 0.95112749995580 0.82241232011017 
H5    H     0.43786870987507 0.80985309032744 0.98583062034843 
H6    H     0.30301619018321 0.74019156004315 0.09117470999204 
H7    H     0.16568906987807 0.75337960990053 0.09963726054225 
H8    H     0.31984653991626 0.98550107004902 0.40668826979041 
H9    H     0.05067218977252 0.84971139004463 0.00604807974351 
H10   H     0.99577151008495 0.98937057039326 0.82047972003197 
H11   H     0.00936247008810 0.12452046990194 0.55522700024850 
H12   H     0.32446763005935 0.07880458025392 0.10341395046032 
H13   H     0.08760702982756 0.19473856964569 0.26557429008840 
H14   H     0.21001282995050 0.18964710026642 0.03281512000941 
C1    C     0.35290226013456 0.11274668020343 0.67029263055236 
C2    C     0.33916281994451 0.00172228030827 0.74918617930839 
C3    C     0.26222624977317 0.94814804988605 0.78438835048129 
C4    C     0.19647932015344 0.98381874033298 0.70038802014548 
C5    C     0.42654570980117 0.16158673993554 0.64126835048485 
C6    C     0.40312183985407 0.94683898970300 0.81501157009205 
C7    C     0.25000579988634 0.85936383038891 0.92142602055625 
C8    C     0.20188326989439 0.03964397032610 0.51975521952283 
C9    C     0.11999813012642 0.95583799023507 0.79517433069100 
C10   C     0.49074514991327 0.10158055958763 0.68917579955559 
C11   C     0.47863976019096 0.99642286037180 0.77672509006692 
C12   C     0.38904330002825 0.84818331965812 0.93219291039189 
C13   C     0.31468478986036 0.80957023018343 0.99001367018578 
C14   C     0.13406663005240 0.09401620002449 0.47141462043342 
C15   C     0.17313632026213 0.82111115980485 0.99490791968300 
C16   C     0.26944508998157 0.03395277023568 0.38003309999825 
C17   C     0.10987909985721 0.87323452968057 0.94159985026065 
C18   C     0.05324484990260 0.00897103987163 0.74083601058366 
C19   C     0.06058274017667 0.08232667011279 0.59225662040227 
C20   C     0.27215984004800 0.08655410024358 0.20884787990784 
C21   C     0.13921036997270 0.15089156025069 0.29745481004822 
C22   C     0.20729803983205 0.14801998006795 0.16779885053172 
