data_stdin
_audit_creation_method 'critic2'
_audit_creation_date 2023-8-11
_chemical_formula_sum 'C22 H14'
_cell_formula_units_Z 8
_cell_length_a        41.8457636534
_cell_length_b         8.8996289705
_cell_length_c         7.7492212893
_cell_angle_alpha        90.0003
_cell_angle_beta        82.2640
_cell_angle_gamma        90.0029
_cell_volume          2859.636248
_space_group_crystal_system monoclinic
_space_group_IT_number 15
_space_group_name_H-M_alt 'C2/c'
_space_group_name_Hall '-C 2yc'
loop_
_symmetry_equiv_pos_site_id
_symmetry_equiv_pos_as_xyz
 1 'x,y,z'
 2 '-1/2-x,-1/2-y,-z'
 3 '-1/2-x,-1/2+y,-1/2-z'
 4 'x,-y,-1/2+z'
 5 '-1/2+x,-1/2+y,z'
 6 '-x,-y,-z'
 7 '-x,y,-1/2-z'
 8 '-1/2+x,-1/2-y,-1/2+z'
loop_
_atom_site_label
_atom_site_type_symbol
_atom_site_fract_x
_atom_site_fract_y
_atom_site_fract_z
H1    H     0.36906959006628 0.36841525033064 0.04177749023686 
H2    H     0.32900955004674 0.56856294034749 0.03352023942918 
H3    H     0.27407482001546 0.54272618005364 0.20163342979038 
H4    H     0.25850638989025 0.30315696969932 0.35295055978876 
H5    H     0.27094895003798 0.04646931012509 0.43272150995802 
H6    H     0.30704268997436 0.82634067040088 0.38416536938386 
H7    H     0.35562137996194 0.71253271970822 0.25394886950736 
H8    H     0.38045399007996 0.36593579051628 0.34673416030103 
H9    H     0.41096289993673 0.73069024032957 0.09168113977894 
H10   H     0.45534491009242 0.87494612987128 0.96044501997936 
H11   H     0.48653495002245 0.11318394997386 0.93970487041976 
H12   H     0.41571452992230 0.58170506983679 0.37682965998251 
H13   H     0.49319342997239 0.36375410965816 0.05203253041012 
H14   H     0.47168059000743 0.58663670017759 0.22337144015166 
C1    C     0.34535509996397 0.35514280986814 0.11608895040665 
C2    C     0.33820597999317 0.22062208989557 0.21171880038530 
C3    C     0.36105915994780 0.09742331032726 0.21254975977436 
C4    C     0.39549952999725 0.10760339054048 0.15792855994904 
C5    C     0.32282496991347 0.46810790003303 0.11103944999668 
C6    C     0.30560152012712 0.20113856037486 0.29315426950375 
C7    C     0.34786248008724 0.95293133944389 0.25830170051874 
C8    C     0.41523195005152 0.24070870986886 0.17100570953668 
C9    C     0.41218693996453 0.97326572989706 0.10074187980223 
C10   C     0.29157875009759 0.45244902993797 0.20272413947781 
C11   C     0.28313553996999 0.31997771035063 0.28974867058588 
C12   C     0.29540428987577 0.05898807007952 0.36585474041113 
C13   C     0.31538938002740 0.93774963002051 0.34060106989754 
C14   C     0.44833823998652 0.24043855954295 0.09297650950252 
C15   C     0.36662145012398 0.82116101017903 0.21939176952093 
C16   C     0.40459112993312 0.36671418980887 0.27525550985610 
C17   C     0.39715097008492 0.83110597024807 0.13214807941768 
C18   C     0.44468306993584 0.97870092954282 0.01649233019438 
C19   C     0.46184842000131 0.10934794965706 0.00573958961799 
C20   C     0.42443569995336 0.48809833971488 0.29331567004337 
C21   C     0.46807493998968 0.36717188009209 0.11140210028889 
C22   C     0.45632698997814 0.49013126003151 0.20810923021861 
