data_stdin
_audit_creation_method 'critic2'
_audit_creation_date 2023-8-11
_chemical_formula_sum 'C22 H14'
_cell_formula_units_Z 4
_cell_length_a         9.8438341774
_cell_length_b        17.5056015701
_cell_length_c         8.2784885900
_cell_angle_alpha        90.0000
_cell_angle_beta        90.0000
_cell_angle_gamma        89.9976
_cell_volume          1426.567688
_space_group_crystal_system orthorhombic
_space_group_IT_number 33
_space_group_name_H-M_alt 'Pna2_1'
_space_group_name_Hall 'P 2c -2n'
loop_
_symmetry_equiv_pos_site_id
_symmetry_equiv_pos_as_xyz
 1 'x,y,z'
 2 '-x,-y,-1/2+z'
 3 '-1/2-x,-1/2+y,-1/2+z'
 4 '-1/2+x,-1/2-y,z'
loop_
_atom_site_label
_atom_site_type_symbol
_atom_site_fract_x
_atom_site_fract_y
_atom_site_fract_z
H1    H     0.04973469034842 0.57576851986545 0.99272487055416 
H2    H     0.80395237990462 0.59003307974063 0.02906323960195 
H3    H     0.66945017009394 0.48678517993616 0.16271738942540 
H4    H     0.78125447030960 0.36506086025426 0.23485512988645 
H5    H     0.98245905996068 0.28260190004048 0.23518146022296 
H6    H     0.21947861040575 0.25967505019059 0.14809405952297 
H7    H     0.42770284003546 0.30353015003468 0.02291437950011 
H8    H     0.13114962976789 0.57145990014575 0.29021418984571 
H9    H     0.56566851981312 0.40673658982805 0.90115740983726 
H10   H     0.60549845954609 0.53993151979190 0.85107581957036 
H11   H     0.55594084956255 0.67587491978014 0.90640913986589 
H12   H     0.10623567986155 0.70342935026282 0.37587221968529 
H13   H     0.42976628960434 0.77164894017075 0.05699824044670 
H14   H     0.25037497027824 0.80679339998646 0.25485043982011 
C1    C     0.99293158986997 0.53041423012401 0.05089608946676 
C2    C     0.06244985979895 0.46382780973792 0.10176796995352 
C3    C     0.20820002007096 0.45412090985474 0.08367493057057 
C4    C     0.30384984982814 0.51539272028060 0.05530849036102 
C5    C     0.85432961001735 0.53831936981329 0.07099114050497 
C6    C     0.98189888008581 0.40162980001230 0.16050915046539 
C7    C     0.25901004020630 0.37787679978368 0.08441899056786 
C8    C     0.28683635019957 0.59372875971870 0.11036429005487 
C9    C     0.42827569014610 0.49690773019223 0.97658921047901 
C10   C     0.77777602950493 0.47960092987924 0.14322726017243 
C11   C     0.84063722000368 0.41191110993999 0.18444213994005 
C12   C     0.04391422046513 0.32903803017471 0.18678475017990 
C13   C     0.17566408004037 0.31676677017941 0.14180423029705 
C14   C     0.37717629003358 0.65180627003809 0.05218538018349 
C15   C     0.39132097972731 0.36222870998809 0.02362995948900 
C16   C     0.19320147972596 0.61491005019981 0.23257120027061 
C17   C     0.46887442963384 0.41936184027713 0.95893173029173 
C18   C     0.51565405000767 0.55619529017727 0.91958240944991 
C19   C     0.48832171985723 0.63120735974419 0.95047999015898 
C20   C     0.18035832961015 0.68986918975083 0.28269304989610 
C21   C     0.36043214029415 0.72843577006934 0.10373052941704 
C22   C     0.26206657963605 0.74783139977520 0.21536641943771 
