data_stdin
_audit_creation_method 'critic2'
_audit_creation_date 2023-8-11
_chemical_formula_sum 'C22 H14'
_cell_formula_units_Z 8
_cell_length_a        28.0842961364
_cell_length_b         5.2348167690
_cell_length_c        20.0020524475
_cell_angle_alpha        89.9992
_cell_angle_beta        95.8593
_cell_angle_gamma        90.0001
_cell_volume          2925.261749
_space_group_crystal_system monoclinic
_space_group_IT_number 15
_space_group_name_H-M_alt 'C2/c'
_space_group_name_Hall '-C 2yc'
loop_
_symmetry_equiv_pos_site_id
_symmetry_equiv_pos_as_xyz
 1 'x,y,z'
 2 '-1/2-x,-1/2-y,-z'
 3 '-1/2-x,-1/2+y,-1/2-z'
 4 'x,-y,-1/2+z'
 5 '-1/2+x,-1/2+y,z'
 6 '-x,-y,-z'
 7 '-x,y,-1/2-z'
 8 '-1/2+x,-1/2-y,-1/2+z'
loop_
_atom_site_label
_atom_site_type_symbol
_atom_site_fract_x
_atom_site_fract_y
_atom_site_fract_z
H1    H     0.38745669014522 0.61160088020361 0.26706529001090 
H2    H     0.39578115008596 0.66126569954897 0.14765305020486 
H3    H     0.36226399995068 0.04435388067181 0.08457546998668 
H4    H     0.31409227990486 0.35769792075051 0.14331553007533 
H5    H     0.27790506994671 0.49660551977447 0.24080553012165 
H6    H     0.25636851987437 0.40765522906134 0.35524073982392 
H7    H     0.25823979987158 0.13653165047372 0.45105110004679 
H8    H     0.43891118001023 0.97060866024089 0.32374039009776 
H9    H     0.29073561995018 0.76020434014673 0.51687042007821 
H10   H     0.34685686999196 0.41887252058269 0.53484070978241 
H11   H     0.42112103990368 0.19716446030676 0.50938499993173 
H12   H     0.51897335999142 0.79661633082618 0.31434683995673 
H13   H     0.49285925985525 0.19367278960536 0.45200044001987 
H14   H     0.54518968991113 0.39139455995071 0.37395846014813 
C1    C     0.37308539993114 0.78169351944439 0.24144690984590 
C2    C     0.34903433007805 0.96615795047493 0.27756320999868 
C3    C     0.34267912003489 0.94134438075900 0.34860696999450 
C4    C     0.36892747993818 0.76726370063865 0.39500219017276 
C5    C     0.37758870014879 0.80892472999490 0.17366197013966 
C6    C     0.32571049002857 0.17050786040919 0.23945515010572 
C7    C     0.30494456996247 0.08664996015460 0.37251234007898 
C8    C     0.41702637999632 0.67243276951397 0.38918339009813 
C9    C     0.34700484989219 0.68915277005603 0.45287896985181 
C10   C     0.35796452996687 0.02217924015122 0.13775490011457 
C11   C     0.33169953985730 0.19718150092392 0.17029934023263 
C12   C     0.29440788009867 0.33881276977616 0.26999576022475 
C13   C     0.28297618992742 0.29101098039169 0.33344028021117 
C14   C     0.43469261009278 0.45962054057560 0.42946985019763 
C15   C     0.28766127999661 0.02415000995898 0.43481713987778 
C16   C     0.44954054016057 0.79451985053402 0.34982632998035 
C17   C     0.30596302994198 0.81949815997636 0.47141533018516 
C18   C     0.36631490004289 0.48155508995608 0.49336201021081 
C19   C     0.40729574993372 0.36081833062212 0.47985499005702 
C20   C     0.49481519999173 0.69711284959509 0.34474978999138 
C21   C     0.48064965998883 0.35919558907385 0.42201490996979 
C22   C     0.51001836003729 0.47204581019228 0.37923851976892 
