data_stdin
_audit_creation_method 'critic2'
_audit_creation_date 2023-8-11
_chemical_formula_sum 'C22 H14'
_cell_formula_units_Z 4
_cell_length_a         7.8499847702
_cell_length_b        11.1901998607
_cell_length_c        16.1392402701
_cell_angle_alpha        89.9992
_cell_angle_beta        89.9996
_cell_angle_gamma        90.0000
_cell_volume          1417.717644
_space_group_crystal_system orthorhombic
_space_group_IT_number 19
_space_group_name_H-M_alt 'P2_12_12_1'
_space_group_name_Hall 'P 2ac 2ab'
loop_
_symmetry_equiv_pos_site_id
_symmetry_equiv_pos_as_xyz
 1 'x,y,z'
 2 '-1/2-x,-y,-1/2+z'
 3 '-1/2+x,-1/2-y,-z'
 4 '-x,-1/2+y,-1/2-z'
loop_
_atom_site_label
_atom_site_type_symbol
_atom_site_fract_x
_atom_site_fract_y
_atom_site_fract_z
H1    H     0.30338215050985 0.14662338967369 0.49431132008420 
H2    H     0.28069389016130 0.21865522030593 0.63633645024189 
H3    H     0.13771733014696 0.41491981964103 0.66661161971139 
H4    H     0.04253687050793 0.54153553979651 0.54990699005201 
H5    H     0.00960284051665 0.57836079984365 0.40165881983310 
H6    H     0.06963017047554 0.51871641037329 0.25716345975079 
H7    H     0.18305989050553 0.38285190957982 0.15814173019484 
H8    H     0.99754194960167 0.10470483976240 0.45835814007124 
H9    H     0.31984322945935 0.18861046985004 0.12334703972180 
H10   H     0.41544706992818 0.99372870034705 0.16202783974315 
H11   H     0.40955790947872 0.82150352995071 0.25833037991118 
H12   H     0.93239103032687 0.92113521974491 0.53294045016878 
H13   H     0.27680486053254 0.72502947040901 0.37599568012308 
H14   H     0.08032760990506 0.72985823042238 0.49679979029670 
C1    C     0.23985325938778 0.23096357012410 0.50568373997132 
C2    C     0.17506604986477 0.29679335004696 0.43774012029922 
C3    C     0.18244669004805 0.25450397973653 0.35253179996826 
C4    C     0.21986866946098 0.13297656040689 0.32743487990746 
C5    C     0.22756659940575 0.27211691037242 0.58624039017466 
C6    C     0.11088219941361 0.41419902969722 0.45485061975655 
C7    C     0.15999679023578 0.34161248021925 0.28887607979587 
C8    C     0.18355223044614 0.02582701020753 0.37553451989717 
C9    C     0.28611264034544 0.11478752022378 0.24610374000040 
C10   C     0.15084686988258 0.38323558014548 0.60314978017237 
C11   C     0.09703673938376 0.45370819994299 0.53798697993263 
C12   C     0.06494953020743 0.49129181018833 0.38810294027278 
C13   C     0.09600847973533 0.45779025013660 0.30821942013221 
C14   C     0.25504023051291 0.91368654983997 0.35016767978672 
C15   C     0.20324938941866 0.31480436005806 0.20537358014389 
C16   C     0.06483769953281 0.02356066023530 0.44166417972352 
C17   C     0.27630261961478 0.20746260966267 0.18602232003082 
C18   C     0.35715459945326 0.00198902971863 0.22304330997227 
C19   C     0.35093046031764 0.90623565998209 0.27527405004596 
C20   C     0.02801942982761 0.91932187966955 0.48404951028988 
C21   C     0.22015671938537 0.80895839958925 0.39642501985870 
C22   C     0.10942559998489 0.81141363016774 0.46287236986358 
