data_stdin
_audit_creation_method 'critic2'
_audit_creation_date 2023-8-11
_chemical_formula_sum 'C22 H14'
_cell_formula_units_Z 8
_cell_length_a         7.7817655833
_cell_length_b        32.8546366091
_cell_length_c        11.2201752767
_cell_angle_alpha        90.1275
_cell_angle_beta        90.0045
_cell_angle_gamma        90.0000
_cell_volume          2868.622347
_space_group_crystal_system monoclinic
_space_group_IT_number 14
_space_group_name_H-M_alt 'P2_1/c'
_space_group_name_Hall '-P 2ybc'
loop_
_symmetry_equiv_pos_site_id
_symmetry_equiv_pos_as_xyz
 1 'x,y,z'
 2 '-x,-y,-z'
 3 '-1/2+x,-1/2-y,-z'
 4 '-1/2-x,-1/2+y,z'
loop_
_atom_site_label
_atom_site_type_symbol
_atom_site_fract_x
_atom_site_fract_y
_atom_site_fract_z
H1    H     0.75501955055610 0.65412604007740 0.17120499042357 
H2    H     0.24329594987605 0.15393524010542 0.32895163997361 
H3    H     0.78858408036801 0.72330508000345 0.24955051022883 
H4    H     0.20950200023858 0.22294255990278 0.25028166965679 
H5    H     0.91018963018679 0.77833231984856 0.12050225984723 
H6    H     0.08812599947310 0.27824021009721 0.37916751034191 
H7    H     0.02678717965321 0.76072154004966 0.92128915962897 
H8    H     0.97188723953929 0.26103786003274 0.57858754998668 
H9    H     0.11466631051693 0.70885729994031 0.77562961985933 
H10   H     0.88432273006583 0.20947109997134 0.72456674031119 
H11   H     0.14926715990483 0.63601075006489 0.72505563975495 
H12   H     0.84973787061932 0.13671882010629 0.77540104024080 
H13   H     0.09774367015874 0.56505993010977 0.76551646021776 
H14   H     0.90131333006787 0.06567425014412 0.73520951002770 
H15   H     0.54204974045662 0.66292560985933 0.98134937971115 
H16   H     0.45648749015203 0.16320672994935 0.51866154009334 
H17   H     0.95594582004325 0.51092776011738 0.88635707001471 
H18   H     0.04317820037198 0.01132338988139 0.61456706996229 
H19   H     0.75346738996554 0.49051648001316 0.03901304984669 
H20   H     0.24580862033367 0.99062151993744 0.46207437003852 
H21   H     0.49844949001677 0.50585168991272 0.16197585015582 
H22   H     0.50065551045336 0.00574773011198 0.33895245025959 
H23   H     0.24737854056691 0.67142012014120 0.05391983981915 
H24   H     0.75104372951032 0.17163229005468 0.44589135962872 
H25   H     0.25815972989269 0.55097826003627 0.20322819018187 
H26   H     0.74078369041798 0.05085285003344 0.29734502988143 
H27   H     0.10402492038874 0.61599812997165 0.16927817025594 
H28   H     0.89458071042589 0.11598893992656 0.33082424993733 
C1    C     0.81014975978678 0.67746228009106 0.11457024042714 
C2    C     0.18824225016291 0.17738768999644 0.38551593037158 
C3    C     0.86669130021783 0.66684280011169 0.99857687028280 
C4    C     0.13194812953081 0.16701336011525 0.50161528004014 
C5    C     0.85708816964919 0.62548475990907 0.95301083958518 
C6    C     0.14171059999688 0.12575361003647 0.54737538028141 
C7    C     0.74443025062132 0.59445370013846 0.99948651961870 
C8    C     0.25443408003171 0.09464745986131 0.50101314959825 
C9    C     0.82948191058732 0.71650160012929 0.15876096963595 
C10   C     0.16876770049796 0.21633045994406 0.34113841972746 
C11   C     0.95526528978488 0.69722844008688 0.93111018038502 
C12   C     0.04344127020756 0.19753174013356 0.56899528024005 
C13   C     0.97521900956822 0.61446463997164 0.86153315961823 
C14   C     0.02368751039499 0.11490764989474 0.63895291960490 
C15   C     0.57574577945333 0.60197526000830 0.05070851038180 
C16   C     0.42305485003415 0.10209622985411 0.44969127027607 
C17   C     0.79411340966750 0.55305366010539 0.98361559964199 
C18   C     0.20491676955705 0.05327133985886 0.51712999018667 
C19   C     0.90122049007175 0.74729598010654 0.08692596968302 
C20   C     0.09712789944290 0.24727238990713 0.41287718023947 
C21   C     0.96340897952604 0.73765874005871 0.97514693034502 
C22   C     0.03516020969852 0.23786831005265 0.52476316981089 
C23   C     0.04766755986121 0.68555743013333 0.82647145016133 
C24   C     0.95121224042958 0.18607027009274 0.67375399966073 
C25   C     0.06525002973735 0.64536456007956 0.79760662016266 
C26   C     0.93368969978792 0.14593424992655 0.70278387034489 
C27   C     0.48830301030760 0.56951078995927 0.11029954967129 
C28   C     0.51061093039077 0.06952196008149 0.39027403029689 
C29   C     0.00519330959914 0.57268065993778 0.83502707040860 
C30   C     0.99380451960895 0.07317320996862 0.66564855989723 
C31   C     0.48296983938097 0.63855931007905 0.03213969035194 
C32   C     0.51565793951922 0.13874713009903 0.46799148028155 
C33   C     0.92580851023594 0.54296211992838 0.90048368974856 
C34   C     0.07324940943684 0.04333322993964 0.60031110966071 
C35   C     0.70678461002403 0.52164669009472 0.04723969994818 
C36   C     0.29236241947426 0.02174561010476 0.45368083992061 
C37   C     0.56444526002162 0.53003910989943 0.11406790010938 
C38   C     0.43463491990181 0.03002428007669 0.38676589991532 
C39   C     0.31663205040282 0.64339165987867 0.07298345976714 
C40   C     0.68192323045591 0.14354063006519 0.42702991968749 
C41   C     0.32061754946613 0.57580219010776 0.15579619959542 
C42   C     0.67821366987071 0.07576219010179 0.34464583985171 
C43   C     0.23497255048701 0.61202857007786 0.13709802963891 
C44   C     0.76367500943407 0.11205697004449 0.36307194971432 
