data_stdin
_audit_creation_method 'critic2'
_audit_creation_date 2023-8-11
_chemical_formula_sum 'C22 H14'
_cell_formula_units_Z 4
_cell_length_a        19.4136527789
_cell_length_b         4.9564956515
_cell_length_c        17.0764574599
_cell_angle_alpha        90.0004
_cell_angle_beta        62.2387
_cell_angle_gamma        90.0008
_cell_volume          1454.025386
_space_group_crystal_system monoclinic
_space_group_IT_number 14
_space_group_name_H-M_alt 'P2_1/c'
_space_group_name_Hall '-P 2ybc'
loop_
_symmetry_equiv_pos_site_id
_symmetry_equiv_pos_as_xyz
 1 'x,y,z'
 2 '-x,-y,-z'
 3 '-x,-1/2+y,-1/2-z'
 4 'x,-1/2-y,-1/2+z'
loop_
_atom_site_label
_atom_site_type_symbol
_atom_site_fract_x
_atom_site_fract_y
_atom_site_fract_z
H1    H     0.19805115002864 0.27116596959949 0.01655870002745 
H2    H     0.11478434009868 0.36470972981582 0.94835489008420 
H3    H     0.02345689978489 0.75928023078940 0.99808025011053 
H4    H     0.01118382988357 0.03429218905223 0.12620472022356 
H5    H     0.04400987992056 0.11658944064579 0.24484040018635 
H6    H     0.10694323016326 0.95887368095993 0.33314752967092 
H7    H     0.18837703005051 0.63972720946896 0.35936558003393 
H8    H     0.28849127017406 0.69903412019113 0.97463302993155 
H9    H     0.28171014978410 0.25574422042597 0.30869414011601 
H10   H     0.36474127982776 0.94730076904639 0.19359312019835 
H11   H     0.43657181010744 0.82398550908613 0.03509390030082 
H12   H     0.37836707013921 0.63461255016248 0.81829789990014 
H13   H     0.47806213005519 0.94463962040668 0.88189275031067 
H14   H     0.47093132013429 0.24229140010534 0.76842341979114 
C1    C     0.15987788002785 0.44558531005687 0.03850944027613 
C2    C     0.15810891982080 0.60866241933879 0.10756024991915 
C3    C     0.20586828969348 0.55424165037622 0.15070490021157 
C4    C     0.27449984978428 0.38636640091305 0.11454841016246 
C5    C     0.11229297998162 0.49805005968272 0.00031088988120 
C6    C     0.10043509017795 0.81667686095012 0.14151842988952 
C7    C     0.17973021017133 0.66075518024853 0.23736534001043 
C8    C     0.32628782009254 0.34950976051471 0.02066144996177 
C9    C     0.29655486989154 0.26249158065926 0.17472466975433 
C10   C     0.06000382997440 0.71731822903183 0.02939661967434 
C11   C     0.05367601988411 0.87158367015271 0.09977456981057 
C12   C     0.08655840011493 0.95414751962897 0.22090172975308 
C13   C     0.12190387021635 0.86785986957779 0.26923575973436 
C14   C     0.38486633980863 0.14436098909887 0.99264967993113 
C15   C     0.21007870967642 0.55754706993868 0.29284440031432 
C16   C     0.32737319010722 0.52651140981507 0.95489756022792 
C17   C     0.26249430980996 0.34932530049043 0.26444351993530 
C18   C     0.35423654017582 0.05482977970223 0.14457360996366 
C19   C     0.39435540982927 0.98790507906142 0.05714597006023 
C20   C     0.37856181033504 0.49019323927311 0.86628080980728 
C21   C     0.43539514024344 0.10680438081700 0.90122516981951 
C22   C     0.43185572024502 0.27385606938596 0.83849111989567 
