data_stdin
_audit_creation_method 'critic2'
_audit_creation_date 2023-8-11
_chemical_formula_sum 'C22 H14'
_cell_formula_units_Z 4
_cell_length_a        20.8919297312
_cell_length_b         8.9213652517
_cell_length_c         7.7125534617
_cell_angle_alpha        90.0005
_cell_angle_beta        81.9539
_cell_angle_gamma        90.0012
_cell_volume          1423.349677
_space_group_crystal_system monoclinic
_space_group_IT_number 13
_space_group_name_H-M_alt 'P2/c'
_space_group_name_Hall '-P 2yc'
loop_
_symmetry_equiv_pos_site_id
_symmetry_equiv_pos_as_xyz
 1 'x,y,z'
 2 '-x,-y,-z'
 3 '-x,y,-1/2-z'
 4 'x,-y,-1/2+z'
loop_
_atom_site_label
_atom_site_type_symbol
_atom_site_fract_x
_atom_site_fract_y
_atom_site_fract_z
H1    H     0.73961908980150 0.62945335004831 0.16310498048132 
H2    H     0.66415616021070 0.42217686029130 0.24437560987961 
H3    H     0.55219546022866 0.43211674027168 0.17178119956725 
H4    H     0.51422683994775 0.66086485990296 0.03324223990442 
H5    H     0.53325079002478 0.91220899955086 0.91522509974714 
H6    H     0.60056297997992 0.14269773025253 0.89759649008978 
H7    H     0.69412705987759 0.27311339026939 0.96042065033556 
H8    H     0.76037433024848 0.62943907038974 0.83730013965696 
H9    H     0.80549602977189 0.27331908954855 0.03972954002785 
H10   H     0.89913895982618 0.14323646015884 0.10260009054476 
H11   H     0.96656897995224 0.91293894055229 0.08516348937025 
H12   H     0.83596447995928 0.42241115996468 0.75598653029295 
H13   H     0.98574424991439 0.66161863030935 0.96718020054779 
H14   H     0.94792319995863 0.43274245993559 0.82859419937652 
C1    C     0.69126356999689 0.63516780965091 0.12754178942023 
C2    C     0.67281717988338 0.76444631980441 0.03969120953777 
C3    C     0.71531705984076 0.89262110990753 0.99906957978173 
C4    C     0.78452051022360 0.89273429946939 0.00128223974893 
C5    C     0.64886610013067 0.51845152051603 0.17394559940031 
C6    C     0.60666462024166 0.77351738044520 0.00998332940231 
C7    C     0.68511458021723 0.03166960018489 0.96963613944353 
C8    C     0.82709377007254 0.76467729961980 0.96070953049350 
C9    C     0.81464516994409 0.03189673950657 0.03064071026007 
C10   C     0.58512139018496 0.52482569028630 0.13482043978622 
C11   C     0.56440246003265 0.65120788962980 0.05584021975070 
C12   C     0.58263397999252 0.90929892019927 0.94557850939164 
C13   C     0.61977993001214 0.03557712964558 0.93460619957365 
C14   C     0.89323875989961 0.77397038009353 0.99043401982505 
C15   C     0.71910862006105 0.16864661978711 0.97934531014910 
C16   C     0.80872705017420 0.63532260019616 0.87285552048913 
C17   C     0.78057237975804 0.16875917022738 0.02086668059477 
C18   C     0.87997814010111 0.03603168985363 0.06566811026439 
C19   C     0.91719056979905 0.90986078053740 0.05478896013194 
C20   C     0.85119636989329 0.51874154965869 0.82643348972427 
C21   C     0.93557458014611 0.65179091016722 0.94457903989771 
C22   C     0.91493615981251 0.52533487947511 0.86556766997601 
