data_stdin
_audit_creation_method 'critic2'
_audit_creation_date 2023-8-11
_chemical_formula_sum 'C22 H14'
_cell_formula_units_Z 8
_cell_length_a        16.3851575801
_cell_length_b        20.2361618400
_cell_length_c         8.7785590214
_cell_angle_alpha        89.9990
_cell_angle_beta        90.0005
_cell_angle_gamma        89.9999
_cell_volume          2910.730521
_space_group_crystal_system orthorhombic
_space_group_IT_number 61
_space_group_name_H-M_alt 'Pbca'
_space_group_name_Hall '-P 2ac 2ab'
loop_
_symmetry_equiv_pos_site_id
_symmetry_equiv_pos_as_xyz
 1 'x,y,z'
 2 '-x,-y,-z'
 3 '-x,-1/2+y,-1/2-z'
 4 'x,-1/2-y,-1/2+z'
 5 '-1/2-x,-y,-1/2+z'
 6 '-1/2+x,y,-1/2-z'
 7 '-1/2+x,-1/2-y,-z'
 8 '-1/2-x,-1/2+y,z'
loop_
_atom_site_label
_atom_site_type_symbol
_atom_site_fract_x
_atom_site_fract_y
_atom_site_fract_z
H1    H     0.86024835011926 0.60471247460229 0.98216755267815 
H2    H     0.99469767937153 0.64108553653156 0.07167799560427 
H3    H     0.09171279517446 0.69690020500494 0.89305454573371 
H4    H     0.05371207694431 0.70993549171746 0.62126631452079 
H5    H     0.96111076617273 0.69031133666128 0.41034907734192 
H6    H     0.84087694317350 0.62939287877876 0.30942467926368 
H7    H     0.72757658636905 0.55554124395414 0.34949286206011 
H8    H     0.78844685051207 0.71365132340102 0.91240789347890 
H9    H     0.62558251702978 0.50374757253973 0.52080250158372 
H10   H     0.56643637506217 0.48994127690643 0.76895022831084 
H11   H     0.55423591316880 0.52285371488149 0.04062767124273 
H12   H     0.75158036291492 0.76152818312151 0.15661749466780 
H13   H     0.58220370133830 0.60272525005083 0.23770560436853 
H14   H     0.65274087451771 0.70428002014265 0.32922927917804 
C1    C     0.90152034790136 0.62887188356852 0.90302765976734 
C2    C     0.87642721145158 0.63815187763298 0.74995750248108 
C3    C     0.79828844873428 0.61502561088671 0.69194689990138 
C4    C     0.72845697669534 0.59817490725786 0.78474281298217 
C5    C     0.97734470904708 0.64931648483761 0.95341484212182 
C6    C     0.93459749689769 0.66598799474295 0.64649317289571 
C7    C     0.79240541363241 0.60477617706975 0.53181688858519 
C8    C     0.70976711490047 0.62755030050774 0.93180845307752 
C9    C     0.66960987705342 0.55374579725727 0.72303218155326 
C10   C     0.03212723719480 0.68068290473237 0.85310052014819 
C11   C     0.01074366149892 0.68861833341345 0.70211539324822 
C12   C     0.91779663940773 0.66647076847617 0.48680858713675 
C13   C     0.85129635887506 0.63358854128283 0.43165032246011 
C14   C     0.64701544834090 0.59886387251768 0.02416504766311 
C15   C     0.72859596098788 0.56504271403754 0.47138209206497 
C16   C     0.74462680818333 0.68767241905078 0.98326208446694 
C17   C     0.67205396264129 0.53691032429098 0.56584820054547 
C18   C     0.60728623733317 0.52672357312599 0.81802840745273 
C19   C     0.59950918050908 0.54548788011860 0.96646796603887 
C20   C     0.72378663744475 0.71503172151378 0.12229444290858 
C21   C     0.62853028489011 0.62676516484656 0.16793067691547 
C22   C     0.66681725448269 0.68349308109513 0.21796967797196 
