data_stdin
_audit_creation_method 'critic2'
_audit_creation_date 2023-8-11
_chemical_formula_sum 'C22 H14'
_cell_formula_units_Z 4
_cell_length_a         8.8639875826
_cell_length_b        11.1197921605
_cell_length_c        16.0018603451
_cell_angle_alpha        89.9994
_cell_angle_beta        65.5811
_cell_angle_gamma        89.9995
_cell_volume          1436.147281
_space_group_crystal_system monoclinic
_space_group_IT_number 14
_space_group_name_H-M_alt 'P2_1/c'
_space_group_name_Hall '-P 2ybc'
loop_
_symmetry_equiv_pos_site_id
_symmetry_equiv_pos_as_xyz
 1 'x,y,z'
 2 '-x,-y,-z'
 3 '-x,-1/2+y,-1/2-z'
 4 'x,-1/2-y,-1/2+z'
loop_
_atom_site_label
_atom_site_type_symbol
_atom_site_fract_x
_atom_site_fract_y
_atom_site_fract_z
H1    H     0.57859874966161 0.47717402038131 0.27060108015438 
H2    H     0.39558377053196 0.47927300999027 0.19106893984003 
H3    H     0.20032640995292 0.65135946002412 0.21199267016729 
H4    H     0.18765375046618 0.81606672002708 0.31880552000012 
H5    H     0.26798496032673 0.90391041980428 0.43182938983905 
H6    H     0.39842808020651 0.87707552030374 0.54133108969473 
H7    H     0.55622069000851 0.75746636985114 0.60151813017772 
H8    H     0.78166065993466 0.65087184973318 0.20471779967233 
H9    H     0.73686826977091 0.58076193999839 0.58968656015501 
H10   H     0.89687083992715 0.41222706001863 0.50566298985048 
H11   H     0.05587556004798 0.31186992955322 0.35651872971191 
H12   H     0.99294369019774 0.58731759042563 0.05632400975428 
H13   H     0.16740403966641 0.31974703982384 0.18959538008196 
H14   H     0.18296227020856 0.41453972993946 0.04670757968927 
C1    C     0.49869814054881 0.55444325976197 0.27894314996320 
C2    C     0.49830027973883 0.64913239034273 0.33849444971891 
C3    C     0.59663999072665 0.64665190013783 0.39208066977802 
C4    C     0.73496111969626 0.56687556011867 0.37538286989724 
C5    C     0.39384075051004 0.55501918973437 0.23458110995951 
C6    C     0.37938357022462 0.74318474038548 0.35404674002215 
C7    C     0.54375376002729 0.72175212023008 0.47134138974070 
C8    C     0.84887064944770 0.52332288015223 0.28575911026224 
C9    C     0.77216822025462 0.53662512968095 0.45121269966510 
C10   C     0.28311372008493 0.65123659959666 0.24677371991355 
C11   C     0.27694127009620 0.74360635989915 0.30566734024258 
C12   C     0.35445565037288 0.83064684036004 0.42378756966903 
C13   C     0.42809146005055 0.81667406042357 0.48306267011962 
C14   C     0.96627788987356 0.43148543019015 0.27980826003993 
C15   C     0.60196464944182 0.70050321025536 0.54067250025131 
C16   C     0.86401858007748 0.57738334962531 0.20242322034209 
C17   C     0.70297205043373 0.60453132980166 0.53375269012781 
C18   C     0.88375692040278 0.44044716031332 0.44381728996009 
C19   C     0.97243517942515 0.38595330006778 0.36165252019897 
C20   C     0.98273910002896 0.54076841985352 0.11832189969600 
C21   C     0.08218463064262 0.39192630017565 0.19272697986551 
C22   C     0.09132790006479 0.44540134026133 0.11285411013110 
