data_stdin
_audit_creation_method 'critic2'
_audit_creation_date 2023-8-11
_chemical_formula_sum 'C22 H14'
_cell_formula_units_Z 4
_cell_length_a        10.0091769209
_cell_length_b         4.7348176211
_cell_length_c        29.9509970269
_cell_angle_alpha        90.0165
_cell_angle_beta        87.6083
_cell_angle_gamma        90.0010
_cell_volume          1418.189946
_space_group_crystal_system triclinic
_space_group_IT_number 2
_space_group_name_H-M_alt 'P-1'
_space_group_name_Hall '-P 1'
loop_
_symmetry_equiv_pos_site_id
_symmetry_equiv_pos_as_xyz
 1 'x,y,z'
 2 '-x,-y,-z'
loop_
_atom_site_label
_atom_site_type_symbol
_atom_site_fract_x
_atom_site_fract_y
_atom_site_fract_z
H1    H     0.90029519032351 0.01818393905899 0.31745582983618 
H2    H     0.09972308014348 0.51819042044378 0.18251828012863 
H3    H     0.92053901002472 0.07795200052645 0.23651846000217 
H4    H     0.07954454979912 0.57785037897550 0.26346617015330 
H5    H     0.78428343966409 0.44472025934157 0.19866911015891 
H6    H     0.21583888968011 0.94453439904741 0.30134981010792 
H7    H     0.61566512047899 0.72166045043794 0.24336821994808 
H8    H     0.38441989047711 0.22152917000389 0.25667355005744 
H9    H     0.49665577008445 0.82384096972239 0.31401616990107 
H10   H     0.50338325974554 0.32377978981451 0.18602671997301 
H11   H     0.44568620958620 0.69384666048778 0.39315529999084 
H12   H     0.55430100031312 0.19384529930689 0.10687166013359 
H13   H     0.48085163962512 0.39638117998813 0.45680771988221 
H14   H     0.51908215993011 0.89641750981153 0.04318671987641 
H15   H     0.98524471989161 0.49745574055607 0.34961583012246 
H16   H     0.01473977990765 0.99757284014006 0.15039977004284 
H17   H     0.61135907042299 0.01939772899645 0.49375831987975 
H18   H     0.38857638022712 0.51937508000690 0.00621313007433 
H19   H     0.80555819003510 0.71963073913912 0.49565678015119 
H20   H     0.19438260953147 0.21954768991593 0.00430672007213 
H21   H     0.04380826978641 0.63451276098392 0.47286191007326 
H22   H     0.95616388025593 0.13433008932839 0.02712529007027 
H23   H     0.22994874044545 0.48981998972474 0.34097574012568 
H24   H     0.77003536980317 0.98995767993063 0.15904420996466 
H25   H     0.24501144985545 0.80646747971235 0.43539432995427 
H26   H     0.75496420030523 0.30628284900540 0.06461623007846 
H27   H     0.36267047046366 0.13997273038382 0.38249662011654 
H28   H     0.63730966972284 0.63996187047850 0.11752011001368 
C1    C     0.84081533002782 0.17933973918373 0.30183542005840 
C2    C     0.15921284992681 0.67932346980779 0.19815495007178 
C3    C     0.75122785998360 0.34518339930871 0.32875746987429 
C4    C     0.24878135005390 0.84519152093173 0.17124768987353 
C5    C     0.73467928996312 0.30860304075579 0.37679877992288 
C6    C     0.26530109008342 0.80864429950619 0.12320191000412 
C7    C     0.82659175990652 0.15733929050816 0.40398956999015 
C8    C     0.17337909987679 0.65736291003795 0.09600367988629 
C9    C     0.85170473035443 0.21230234082078 0.25600533012523 
C10   C     0.14836181979014 0.71221901896181 0.24399008001154 
C11   C     0.66450758030594 0.53431250958823 0.30639436994202 
C12   C     0.33552159987709 0.03428413058811 0.19362710011767 
C13   C     0.61458243969788 0.41223857947174 0.39797587012204 
C14   C     0.38538531044339 0.91227675053038 0.10202762985897 
C15   C     0.97048962047598 0.14595648006997 0.39579109988649 
C16   C     0.02948605029559 0.64596514012785 0.10421082993718 
C17   C     0.77432527031754 0.03013463092050 0.44405188007056 
C18   C     0.22563279015338 0.53012556014361 0.05592966989050 
C19   C     0.77292517025787 0.41401289059637 0.23462873007427 
C20   C     0.22716359008114 0.91388784980383 0.26538537993041 
C21   C     0.67997202016369 0.56996080100157 0.25949254014346 
C22   C     0.32009572973683 0.06986733970824 0.24053412002188 
C23   C     0.55902510014029 0.67370662075108 0.33121113995873 
C24   C     0.44099126029675 0.17368265943834 0.16881906005894 
C25   C     0.53204021012980 0.60469924052948 0.37491689989191 
C26   C     0.46794719027993 0.10470939928966 0.12510329998308 
C27   C     0.04799184032321 0.95747483996233 0.42160901993393 
C28   C     0.95198269009908 0.45739614913184 0.07839174991221 
C29   C     0.57393341985603 0.31560669021305 0.44147329993236 
C30   C     0.42601240962267 0.81563408069607 0.05851968005586 
C31   C     0.04090556045560 0.33862784067696 0.36722207996066 
C32   C     0.95907463036597 0.83869631896490 0.13279020013577 
C33   C     0.64630919958650 0.11171391953120 0.46206903983743 
C34   C     0.35363534988022 0.61171489025034 0.03791094986087 
C35   C     0.85268026012074 0.83079592008162 0.46731359005289 
C36   C     0.14727410970897 0.33072578980241 0.03266237014753 
C37   C     0.98375269986202 0.78609409984783 0.45519029006745 
C38   C     0.01621754001749 0.28597550024839 0.04479765984741 
C39   C     0.17876413006787 0.33637983090585 0.36265266992120 
C40   C     0.82121655963917 0.83645252099826 0.13736290003687 
C41   C     0.18902353037001 0.95524544985842 0.41563242983804 
C42   C     0.81095263016181 0.45514424947156 0.08437687993619 
C43   C     0.25409493013207 0.14018757925079 0.38650742010335 
C44   C     0.74588490981075 0.64017142017803 0.11350725006988 
