data_stdin
_audit_creation_method 'critic2'
_audit_creation_date 2023-8-11
_chemical_formula_sum 'C22 H14'
_cell_formula_units_Z 4
_cell_length_a        25.9667967141
_cell_length_b         9.9600899526
_cell_length_c         5.7270233140
_cell_angle_alpha        90.0006
_cell_angle_beta        89.9988
_cell_angle_gamma        89.9992
_cell_volume          1481.189380
_space_group_crystal_system orthorhombic
_space_group_IT_number 29
_space_group_name_H-M_alt 'Pca2_1'
_space_group_name_Hall 'P 2c -2ac'
loop_
_symmetry_equiv_pos_site_id
_symmetry_equiv_pos_as_xyz
 1 'x,y,z'
 2 '-x,-y,-1/2+z'
 3 '-1/2-x,y,-1/2+z'
 4 '-1/2+x,-y,z'
loop_
_atom_site_label
_atom_site_type_symbol
_atom_site_fract_x
_atom_site_fract_y
_atom_site_fract_z
H1    H     0.55796656985907 0.19420535008521 0.02568126982556 
H2    H     0.47889982990774 0.06558437981553 0.96442652991316 
H3    H     0.42868445003076 0.09036744998205 0.59480193995704 
H4    H     0.45663845991311 0.25825394978264 0.29890883078355 
H5    H     0.51272120004151 0.43984876989773 0.17849010034710 
H6    H     0.57863756999532 0.60764174967278 0.28525826035858 
H7    H     0.64033201002862 0.69617640039493 0.56110580060589 
H8    H     0.62504275999964 0.11109944951416 0.69064374995305 
H9    H     0.69106352987693 0.67388835041928 0.92936918046625 
H10   H     0.71870611981910 0.54065457037840 0.26226615051954 
H11   H     0.72648054990024 0.32197034983584 0.46222255934305 
H12   H     0.65285130017336 0.89110799003375 0.83518456945304 
H13   H     0.72148332990759 0.07771285040651 0.43826076914854 
H14   H     0.69822614983756 0.87095763048718 0.21992451967374 
C1    C     0.53716210014673 0.20568842025087 0.86240608962289 
C2    C     0.55554856981609 0.29747518985315 0.69257614954370 
C3    C     0.60079891004444 0.38087506030766 0.72838044937272 
C4    C     0.63998116986268 0.35571199951364 0.90116580984558 
C5    C     0.49217016002753 0.13394148038879 0.82889263958736 
C6    C     0.52424275002580 0.31924808037457 0.49027294060519 
C7    C     0.60441435018042 0.50101113032613 0.59472382971228 
C8    C     0.65451016014651 0.22354197012677 0.98556986075247 
C9    C     0.66891551997636 0.46676723975394 0.98643364034945 
C10   C     0.46354873015493 0.14899192031212 0.62155361035798 
C11   C     0.47938266007551 0.24081777029675 0.45576270080757 
C12   C     0.53592225010482 0.42714938956856 0.33508671085075 
C13   C     0.57283877989996 0.51885592026135 0.39301792961925 
C14   C     0.68500509987608 0.21250996960509 0.19291135930529 
C15   C     0.63894616997169 0.60439330007103 0.66486281977557 
C16   C     0.64461492981926 0.10442430980600 0.85794419983103 
C17   C     0.66744637000607 0.59130808967351 0.86489694015176 
C18   C     0.69955183987979 0.45214250014543 0.19186883005362 
C19   C     0.70462677006719 0.33095775992148 0.30101554036963 
C20   C     0.66052686012243 0.98041194970149 0.93922689037768 
C21   C     0.69903130990069 0.08391473027187 0.27793999028724 
C22   C     0.68659196988545 0.96919034016540 0.15449352078174 
