data_stdin
_audit_creation_method 'critic2'
_audit_creation_date 2023-8-11
_chemical_formula_sum 'C22 H14'
_cell_formula_units_Z 4
_cell_length_a         7.6057088100
_cell_length_b        11.2476801902
_cell_length_c        16.9396854934
_cell_angle_alpha        89.9996
_cell_angle_beta        78.3717
_cell_angle_gamma        89.9999
_cell_volume          1419.389751
_space_group_crystal_system monoclinic
_space_group_IT_number 14
_space_group_name_H-M_alt 'P2_1/c'
_space_group_name_Hall '-P 2ybc'
loop_
_symmetry_equiv_pos_site_id
_symmetry_equiv_pos_as_xyz
 1 'x,y,z'
 2 '-x,-y,-z'
 3 '-x,-1/2+y,-1/2-z'
 4 'x,-1/2-y,-1/2+z'
loop_
_atom_site_label
_atom_site_type_symbol
_atom_site_fract_x
_atom_site_fract_y
_atom_site_fract_z
H1    H     0.06752876065825 0.98419319003227 0.55687012975401 
H2    H     0.01797134008084 0.20022885988314 0.55418369010307 
H3    H     0.82298755021853 0.30110009016431 0.67155555980328 
H4    H     0.65677536961273 0.18027568037121 0.78434348993797 
H5    H     0.56301441021751 0.98913378997476 0.84343466008970 
H6    H     0.55140659072056 0.76916774001971 0.82788342971945 
H7    H     0.63993940007375 0.59288315009314 0.75130665009818 
H8    H     0.22165832015725 0.95257976960099 0.67556691973302 
H9    H     0.84183884037397 0.48737687016318 0.63935657000620 
H10   H     0.11130709954455 0.47938506034426 0.53920603012203 
H11   H     0.40004096012886 0.56688936042422 0.47016926004790 
H12   H     0.53526767963139 0.01413402020958 0.62964864000107 
H13   H     0.62907298998156 0.71725468959254 0.46727771028675 
H14   H     0.73856344994111 0.90088883017641 0.52348132011533 
C1    C     0.98051266041061 0.02682401994332 0.60769826984171 
C2    C     0.89444999026457 0.95540107998177 0.67307813024860 
C3    C     0.91250972010058 0.82677632961213 0.67395162984654 
C4    C     0.05423811018109 0.75925001974372 0.62364498021210 
C5    C     0.95356774019562 0.14832480968008 0.60635349987660 
C6    C     0.76909219052986 0.01288219033944 0.73583809000900 
C7    C     0.77292469964418 0.76262139963221 0.72513207988660 
C8    C     0.23666081010753 0.80181743977100 0.59488490025854 
C9    C     0.01954223964287 0.63784668976733 0.60810032992642 
C10   C     0.84085754059117 0.20513623976708 0.67164165974757 
C11   C     0.74939521932606 0.13799189993690 0.73493681008917 
C12   C     0.65421672011588 0.94322768957584 0.79522459979281 
C13   C     0.64970698978596 0.82259287981543 0.78720223983000 
C14   C     0.35949604022553 0.73208570041220 0.53789864010351 
C15   C     0.75178839013715 0.63874270957806 0.71323921022883 
C16   C     0.30747735994328 0.90240077976262 0.62815711994472 
C17   C     0.86394643950838 0.58037586034609 0.65234321995527 
C18   C     0.14530455002316 0.57074847007420 0.55126031028176 
C19   C     0.30563221047953 0.61842664034325 0.51397454987926 
C20   C     0.48415943968538 0.93684824960986 0.60288508010669 
C21   C     0.53888721947615 0.77097087021007 0.51147144012974 
C22   C     0.60038162060583 0.87214316997321 0.54298795984357 
