data_stdin
_audit_creation_method 'critic2'
_audit_creation_date 2023-8-11
_chemical_formula_sum 'C22 H14'
_cell_formula_units_Z 2
_cell_length_a         9.3985134239
_cell_length_b        14.2679108027
_cell_length_c         5.4152450473
_cell_angle_alpha        85.6002
_cell_angle_beta        83.6639
_cell_angle_gamma        93.1467
_cell_volume           718.134032
_space_group_crystal_system triclinic
_space_group_IT_number 2
_space_group_name_H-M_alt 'P-1'
_space_group_name_Hall '-P 1'
loop_
_symmetry_equiv_pos_site_id
_symmetry_equiv_pos_as_xyz
 1 'x,y,z'
 2 '-x,-y,-z'
loop_
_atom_site_label
_atom_site_type_symbol
_atom_site_fract_x
_atom_site_fract_y
_atom_site_fract_z
H1    H     0.87832861040935 0.62710335021298 0.53949451921015 
H2    H     0.88563779042035 0.45928019995170 0.47360125013752 
H3    H     0.77660711964699 0.39423608964082 0.12080844053480 
H4    H     0.63960691992327 0.49796857987625 0.85342246935525 
H5    H     0.53868979046067 0.64789660032010 0.76263657936397 
H6    H     0.48840756960347 0.80816009996220 0.88647180081762 
H7    H     0.51392872979056 0.93148391026904 0.15905431967539 
H8    H     0.03019391042021 0.71183849996255 0.13038393038106 
H9    H     0.63156177960759 0.00120147002269 0.49929354020775 
H10   H     0.80922721015095 0.99745367991272 0.78732173955265 
H11   H     0.03468193011651 0.93759491994047 0.92079888006897 
H12   H     0.28116266002749 0.68712990035537 0.19186285926867 
H13   H     0.24688656014457 0.85385793023029 0.82173928013131 
H14   H     0.39013825055184 0.75371001972176 0.54203461916041 
C1    C     0.83081422971261 0.60050556003826 0.38261201042347 
C2    C     0.76179141972185 0.66290525021682 0.22525988995023 
C3    C     0.75284215953346 0.76235436012016 0.26200090999337 
C4    C     0.84291850034108 0.81481131988820 0.40921297077476 
C5    C     0.83477431973024 0.50584644995946 0.34614125013251 
C6    C     0.68555814964719 0.62281454988430 0.03971974956670 
C7    C     0.64092603987347 0.80935476985309 0.15762506061437 
C8    C     0.98918862969199 0.79456166977878 0.44701743056571 
C9    C     0.78911839025528 0.89642312022806 0.51249531961257 
C10   C     0.77053507024295 0.46869761993087 0.14865011061692 
C11   C     0.69557059011489 0.52623742967837 0.00000678077175 
C12   C     0.59288748028990 0.67888610985114 0.90752435985354 
C13   C     0.56632946946596 0.76715853001938 0.97428449042556 
C14   C     0.05644664048871 0.83897039981220 0.63608946940066 
C15   C     0.60168416980759 0.89780726977923 0.23907019963695 
C16   C     0.07519322025156 0.74083376963550 0.28668475075350 
C17   C     0.66703860031114 0.93659012014558 0.42454616981650 
C18   C     0.85870389992544 0.93883992995636 0.70134741049591 
C19   C     0.98346820044025 0.90713495974604 0.77235364063224 
C20   C     0.21644687979780 0.72703842011827 0.32032365048550 
C21   C     0.19962393007165 0.82073752995982 0.67263713035628 
C22   C     0.27889316989188 0.76544942988929 0.51813743061930 
