data_stdin
_audit_creation_method 'critic2'
_audit_creation_date 2023-8-11
_chemical_formula_sum 'C22 H14'
_cell_formula_units_Z 4
_cell_length_a         9.5669844049
_cell_length_b        13.4364100200
_cell_length_c        11.5677776964
_cell_angle_alpha        90.0001
_cell_angle_beta        73.0994
_cell_angle_gamma        89.9996
_cell_volume          1422.768297
_space_group_crystal_system monoclinic
_space_group_IT_number 14
_space_group_name_H-M_alt 'P2_1/c'
_space_group_name_Hall '-P 2ybc'
loop_
_symmetry_equiv_pos_site_id
_symmetry_equiv_pos_as_xyz
 1 'x,y,z'
 2 '-x,-y,-z'
 3 '-x,-1/2+y,-1/2-z'
 4 'x,-1/2-y,-1/2+z'
loop_
_atom_site_label
_atom_site_type_symbol
_atom_site_fract_x
_atom_site_fract_y
_atom_site_fract_z
H1    H     0.03660436990739 0.94797302035722 0.56294152022402 
H2    H     0.02264959965995 0.86623547011892 0.37730735991965 
H3    H     0.22538064055102 0.75517845996587 0.26168022985124 
H4    H     0.44650930981507 0.73717401009210 0.32820951019054 
H5    H     0.59446888040140 0.78692037028756 0.45783695009617 
H6    H     0.63342154977698 0.90277163033641 0.61203130032623 
H7    H     0.55268196020672 0.03555741019100 0.75025805040005 
H8    H     0.02510041999808 0.80975781012215 0.71245849971557 
H9    H     0.35662151032672 0.14674535996029 0.87051496002877 
H10   H     0.10538059042504 0.18929003979225 0.94920928989991 
H11   H     0.84385341994006 0.15644213991645 0.97525843008348 
H12   H     0.76862060971653 0.76328690991571 0.77569642023696 
H13   H     0.65582446039487 0.04644737982346 0.95274133024709 
H14   H     0.57775530041258 0.88430808005043 0.88950630019828 
C1    C     0.12567264992492 0.90011384973215 0.51429276993745 
C2    C     0.24817828035829 0.88819289980667 0.55868209980130 
C3    C     0.26349456974666 0.94059431986374 0.66462784022737 
C4    C     0.14606650000561 0.98844853995014 0.75581974027943 
C5    C     0.11743576021209 0.85392012019219 0.40963217986076 
C6    C     0.36805714042310 0.83055051013362 0.48645415963136 
C7    C     0.40848287954820 0.95236662001499 0.67275353991750 
C8    C     0.99342145944010 0.95817132027990 0.79013401031159 
C9    C     0.18329431038631 0.06768647998468 0.82360138023617 
C10   C     0.23184917996341 0.79207491000270 0.34366143980421 
C11   C     0.35481688988516 0.78108150983503 0.38190286020682 
C12   C     0.50447868004986 0.83107586017436 0.51333368998020 
C13   C     0.52568605969562 0.89419148975800 0.59904860010677 
C14   C     0.88504696997741 0.02217372009327 0.86593367035633 
C15   C     0.43983307055500 0.02548359996652 0.75039233983900 
C16   C     0.94584947043178 0.86364793036472 0.76235180007956 
C17   C     0.33171804010169 0.08612730007307 0.81714423994878 
C18   C     0.07224245052484 0.12800710021421 0.90132975967494 
C19   C     0.92782898951576 0.10937922995045 0.91696849044794 
C20   C     0.79986156947525 0.83708333015427 0.79822310010585 
C21   C     0.73583871975756 0.99509816964838 0.89739330994855 
C22   C     0.69297055005150 0.90435348992665 0.86353072981064 
