data_stdin
_audit_creation_method 'critic2'
_audit_creation_date 2023-8-11
_chemical_formula_sum 'C22 H14'
_cell_formula_units_Z 4
_cell_length_a         8.4336000239
_cell_length_b        20.4061695801
_cell_length_c         8.6314676996
_cell_angle_alpha        89.9992
_cell_angle_beta        83.2899
_cell_angle_gamma        89.9979
_cell_volume          1475.278630
_space_group_crystal_system monoclinic
_space_group_IT_number 14
_space_group_name_H-M_alt 'P2_1/c'
_space_group_name_Hall '-P 2ybc'
loop_
_symmetry_equiv_pos_site_id
_symmetry_equiv_pos_as_xyz
 1 'x,y,z'
 2 '-x,-y,-z'
 3 '-1/2-x,-1/2+y,-1/2-z'
 4 '-1/2+x,-1/2-y,-1/2+z'
loop_
_atom_site_label
_atom_site_type_symbol
_atom_site_fract_x
_atom_site_fract_y
_atom_site_fract_z
H1    H     0.13728332975055 0.77169743997968 0.21248376967610 
H2    H     0.21011557012960 0.83655868011618 0.43126011997902 
H3    H     0.10539159996287 0.94967484997496 0.47827584993932 
H4    H     0.93435708018399 0.99902705992033 0.29116051001288 
H5    H     0.81589096034942 0.99508973023765 0.05223596943133 
H6    H     0.79199981063084 0.94001924996453 0.80006827964601 
H7    H     0.86428140966484 0.85264675991595 0.61988153047846 
H8    H     0.83071623030844 0.74814030991680 0.26384314004034 
H9    H     0.98979798046034 0.74402828021230 0.56029496055538 
H10   H     0.09128932952651 0.64186920019506 0.64547272991478 
H11   H     0.12500991992017 0.56220676018683 0.85560585946547 
H12   H     0.80610446010541 0.65982984988291 0.45774723963229 
H13   H     0.06024812052770 0.52869292993151 0.12585686997924 
H14   H     0.93214698951488 0.55079102009801 0.39499919944460 
C1    C     0.08744721962225 0.82053066022985 0.23104624051765 
C2    C     0.98565720025653 0.84602334996645 0.12591091056721 
C3    C     0.94793839957779 0.81062677984021 0.98865844006907 
C4    C     0.97544807980655 0.74140577976615 0.96100054961622 
C5    C     0.12997469991226 0.85724059996970 0.35425875944442 
C6    C     0.93532946940928 0.91273863010635 0.14768778054808 
C7    C     0.89442515015270 0.84835930995542 0.86590795022879 
C8    C     0.96517715036323 0.69120520982957 0.08129216951508 
C9    C     0.00328868048790 0.71989264997075 0.80305162947986 
C10   C     0.07136949968241 0.92143930984484 0.38036282952886 
C11   C     0.97577379992260 0.94852952988720 0.27797404958957 
C12   C     0.85462889040334 0.94455919988741 0.03246516013930 
C13   C     0.84109175956695 0.91415104002020 0.89382419022683 
C14   C     0.02128264005537 0.62636077012154 0.04136378050464 
C15   C     0.90275925983206 0.82228356003705 0.71227152976126 
C16   C     0.88542847978738 0.70096156012630 0.23355660040927 
C17   C     0.96910962050188 0.76197187994938 0.67976411972320 
C18   C     0.06053502968407 0.65513400001174 0.76759867039925 
C19   C     0.07705320991267 0.61089777014223 0.88321612003968 
C20   C     0.87141595005239 0.65121649014221 0.34317298055558 
C21   C     0.01163973030233 0.57702391986296 0.15761923050631 
C22   C     0.93915594003981 0.58916155000927 0.30670547040503 
