data_stdin
_audit_creation_method 'critic2'
_audit_creation_date 2023-8-11
_chemical_formula_sum 'C22 H14'
_cell_formula_units_Z 4
_cell_length_a         7.3795795202
_cell_length_b        26.1728238200
_cell_length_c         7.6392012883
_cell_angle_alpha        90.0020
_cell_angle_beta        72.3408
_cell_angle_gamma        90.0017
_cell_volume          1405.941644
_space_group_crystal_system monoclinic
_space_group_IT_number 14
_space_group_name_H-M_alt 'P2_1/c'
_space_group_name_Hall '-P 2ybc'
loop_
_symmetry_equiv_pos_site_id
_symmetry_equiv_pos_as_xyz
 1 'x,y,z'
 2 '-x,-y,-z'
 3 '-x,-1/2+y,-1/2-z'
 4 'x,-1/2-y,-1/2+z'
loop_
_atom_site_label
_atom_site_type_symbol
_atom_site_fract_x
_atom_site_fract_y
_atom_site_fract_z
H1    H     0.46803356966568 0.34333063011203 0.06317384040236 
H2    H     0.37764432982153 0.36883979988909 0.38586114022631 
H3    H     0.47549744044644 0.45352723998848 0.47645058032255 
H4    H     0.68556738977833 0.50977801981316 0.23701812056632 
H5    H     0.88964383007856 0.52263304006773 0.92422876989914 
H6    H     0.04755191948899 0.48558167996528 0.61868829042364 
H7    H     0.08559337035280 0.41818236986593 0.39753840977268 
H8    H     0.29883890997803 0.41016833004312 0.91922768007227 
H9    H     0.98048367006179 0.33612916990748 0.29865139951476 
H10   H     0.73949693989029 0.27270792989171 0.32405083065578 
H11   H     0.41468338935803 0.23957324988937 0.46716155049769 
H12   H     0.96348482934949 0.38470134012705 0.01954995062871 
H13   H     0.09833390960428 0.25130560993146 0.67573188009738 
H14   H     0.86102062987692 0.30324334996909 0.91073408000510 
C1    C     0.51063140031516 0.38071316005993 0.09837388969803 
C2    C     0.62188499055729 0.41285008017092 0.95705564988468 
C3    C     0.68473124062391 0.39793405004881 0.76456456992762 
C4    C     0.59940054017959 0.35818955989916 0.68383198027602 
C5    C     0.45953140956446 0.39502132997908 0.28099394937146 
C6    C     0.69238452999284 0.45920588999229 0.01215687931221 
C7    C     0.85235724032635 0.42195843005536 0.65087669026006 
C8    C     0.39942159953404 0.34397401991018 0.74756925034650 
C9    C     0.71499153074883 0.33409166995617 0.52065384976464 
C10   C     0.51620973005462 0.44269194017378 0.33219663950021 
C11   C     0.63193141993741 0.47396819983065 0.19936703951524 
C12   C     0.83732524065343 0.48733805015631 0.88154280976226 
C13   C     0.92276178946641 0.46727621002814 0.71161570027600 
C14   C     0.33593611978080 0.29978268005472 0.67176834064703 
C15   C     0.95476608062108 0.39989284993824 0.47931197936925 
C16   C     0.25774073003675 0.37444637011688 0.86997072938610 
C17   C     0.89545129941340 0.35496822996748 0.42363685982029 
C18   C     0.64617262966566 0.29059149005032 0.44737356024085 
C19   C     0.46593728022054 0.27257897000769 0.52485123026442 
C20   C     0.06874559961190 0.36008404997704 0.92714020020843 
C21   C     0.14183345991119 0.28525270984817 0.73534739978154 
C22   C     0.01016294956249 0.31430869992125 0.86356938005160 
