data_stdin
_audit_creation_method 'critic2'
_audit_creation_date 2023-8-11
_chemical_formula_sum 'C22 H14'
_cell_formula_units_Z 4
_cell_length_a        16.0798710109
_cell_length_b         5.1582877302
_cell_length_c        17.6470554824
_cell_angle_alpha        90.0009
_cell_angle_beta        89.9991
_cell_angle_gamma        90.0053
_cell_volume          1463.727975
_space_group_crystal_system orthorhombic
_space_group_IT_number 19
_space_group_name_H-M_alt 'P2_12_12_1'
_space_group_name_Hall 'P 2ac 2ab'
loop_
_symmetry_equiv_pos_site_id
_symmetry_equiv_pos_as_xyz
 1 'x,y,z'
 2 '-1/2-x,-y,-1/2+z'
 3 '-x,-1/2+y,-1/2-z'
 4 '-1/2+x,-1/2-y,-z'
loop_
_atom_site_label
_atom_site_type_symbol
_atom_site_fract_x
_atom_site_fract_y
_atom_site_fract_z
H1    H     0.30330577982806 0.81781386079339 0.61740468981083 
H2    H     0.39978279982401 0.93384480017767 0.71865227987100 
H3    H     0.48692683004503 0.33571498916473 0.70887358023852 
H4    H     0.48378007976525 0.59295516093886 0.58963471022100 
H5    H     0.43731301986423 0.64988928039468 0.45964379018634 
H6    H     0.36201506004522 0.47683263078610 0.34823982020774 
H7    H     0.27259480998469 0.15771221992124 0.29067331023146 
H8    H     0.19834083030729 0.20968113917165 0.61988782987017 
H9    H     0.18065656003564 0.77234845045490 0.30141828978246 
H10   H     0.10139840988270 0.47276942979641 0.37730561997193 
H11   H     0.03967627024103 0.34540913037618 0.49998799020727 
H12   H     0.11625859988021 0.12964896072645 0.73383661009332 
H13   H     0.00915078018496 0.45021262096898 0.63054922009628 
H14   H     0.02446752999606 0.73893047987366 0.74304918997930 
C1    C     0.33981519993738 0.99393574025246 0.61214036003258 
C2    C     0.33182852029823 0.14728955977121 0.54594373002146 
C3    C     0.27544221985011 0.08183277929645 0.48451670020263 
C4    C     0.20525273021972 0.90865740035484 0.49109310018905 
C5    C     0.39482237006603 0.05914567958977 0.66919414018303 
C6    C     0.38852450995644 0.35915046952916 0.53694536010584 
C7    C     0.29427854019788 0.18525280942902 0.41166997014482 
C8    C     0.15764494010198 0.86566686922258 0.55999187022201 
C9    C     0.17652496001228 0.78326498938808 0.42413931020806 
C10   C     0.44481833002691 0.28267995004166 0.66305536026533 
C11   C     0.44247046975274 0.42763287054939 0.59727099990417 
C12   C     0.39476966002965 0.48707789020592 0.46546155993657 
C13   C     0.35261055991859 0.39271518006496 0.40422887975788 
C14   C     0.09873076028312 0.65762586903460 0.56275410019308 
C15   C     0.25630164977282 0.07835652912341 0.34591712014997 
C16   C     0.16002021007471 0.03679268021857 0.62277710012512 
C17   C     0.20435217989115 0.86904208999641 0.35188748004279 
C18   C     0.11784113974162 0.57615919988768 0.42900873995935 
C19   C     0.08308854979974 0.50670644006045 0.49656088012356 
C20   C     0.11290978990218 0.99274422990823 0.68697162011374 
C21   C     0.05244764029620 0.61283968915369 0.62986339013779 
C22   C     0.06021887976843 0.77489857919954 0.69173042974040 
