data_stdin
_audit_creation_method 'critic2'
_audit_creation_date 2023-8-11
_chemical_formula_sum 'C22 H14'
_cell_formula_units_Z 4
_cell_length_a         6.0788229555
_cell_length_b        13.1921427221
_cell_length_c        18.5072083800
_cell_angle_alpha        90.0004
_cell_angle_beta        73.5101
_cell_angle_gamma        89.9986
_cell_volume          1423.100055
_space_group_crystal_system monoclinic
_space_group_IT_number 14
_space_group_name_H-M_alt 'P2_1/c'
_space_group_name_Hall '-P 2ybc'
loop_
_symmetry_equiv_pos_site_id
_symmetry_equiv_pos_as_xyz
 1 'x,y,z'
 2 '-x,-y,-z'
 3 '-x,-1/2+y,-1/2-z'
 4 'x,-1/2-y,-1/2+z'
loop_
_atom_site_label
_atom_site_type_symbol
_atom_site_fract_x
_atom_site_fract_y
_atom_site_fract_z
H1    H     0.53745879057057 0.86563027974456 0.92459078004577 
H2    H     0.44975135025240 0.04649245991846 0.94741349980084 
H3    H     0.10628254010273 0.12170095032855 0.92089176027498 
H4    H     0.86877414091833 0.01592119996692 0.86043524974322 
H5    H     0.81335411004223 0.85971988971198 0.79658958004207 
H6    H     0.95000945065534 0.68906477016636 0.74964181980636 
H7    H     0.22793100930679 0.55394126023194 0.73358826990792 
H8    H     0.17738404007119 0.77225389972343 0.01574379983708 
H9    H     0.55579614918053 0.47213405991638 0.76570262002069 
H10   H     0.81172385041812 0.46179583990236 0.84414373000889 
H11   H     0.93995278989887 0.52155106000652 0.95245100972948 
H12   H     0.24604764909491 0.79875676977980 0.13902083013662 
H13   H     0.85683285899316 0.61764678006260 0.07065571022433 
H14   H     0.59538741944554 0.72906313985159 0.16549804023975 
C1    C     0.38851020048632 0.89727077034060 0.91138237002013 
C2    C     0.25142259951858 0.83340577977579 0.88009949003149 
C3    C     0.30094797999264 0.72648346980079 0.86411068997425 
C4    C     0.44638770067986 0.66535259986425 0.89624524988234 
C5    C     0.33928085013040 0.99910000004677 0.92443722027100 
C6    C     0.06976049070002 0.88020038966908 0.85697025986741 
C7    C     0.20932146049038 0.68074566963225 0.80926348974508 
C8    C     0.48385256016912 0.68350755973490 0.96919143990644 
C9    C     0.55059837954731 0.57738247991273 0.85626517027844 
C10   C     0.14680791942459 0.04219165966444 0.90823301983342 
C11   C     0.01559128971054 0.98338351026488 0.87478101980122 
C12   C     0.95469249947016 0.82424906017931 0.81247633980375 
C13   C     0.03001999020680 0.72990128030701 0.78672703026424 
C14   C     0.66906025955278 0.63345179989037 0.98794868993076 
C15   C     0.29831285955445 0.58653868005875 0.77625057011831 
C16   C     0.33045564973626 0.74094158031345 0.02640885992285 
C17   C     0.47555459942079 0.54006729990472 0.79511708973620 
C18   C     0.72858918917674 0.52607619010651 0.87798997019650 
C19   C     0.79597255051572 0.55749264009619 0.93867703007303 
C20   C     0.36911460049511 0.75599006021749 0.09565715982262 
C21   C     0.71127415992568 0.65403745985057 0.05801066990423 
C22   C     0.56519333050915 0.71508154999846 0.11107884012742 
