data_stdin
_audit_creation_method 'critic2'
_audit_creation_date 2023-8-11
_chemical_formula_sum 'C22 H14'
_cell_formula_units_Z 4
_cell_length_a         7.1593990993
_cell_length_b        11.4317641200
_cell_length_c        18.1981507627
_cell_angle_alpha        90.0002
_cell_angle_beta       102.1217
_cell_angle_gamma        90.0000
_cell_volume          1456.211347
_space_group_crystal_system monoclinic
_space_group_IT_number 14
_space_group_name_H-M_alt 'P2_1/c'
_space_group_name_Hall '-P 2ybc'
loop_
_symmetry_equiv_pos_site_id
_symmetry_equiv_pos_as_xyz
 1 'x,y,z'
 2 '-x,-y,-z'
 3 '-x,-1/2+y,-1/2-z'
 4 'x,-1/2-y,-1/2+z'
loop_
_atom_site_label
_atom_site_type_symbol
_atom_site_fract_x
_atom_site_fract_y
_atom_site_fract_z
H1    H     0.40441535265843 0.28556928229075 0.18040372657470 
H2    H     0.49765921006405 0.42621074351657 0.28366269621001 
H3    H     0.44478940064718 0.63925878936842 0.26089449527508 
H4    H     0.32243845683781 0.71082076433810 0.13050769771236 
H5    H     0.23916168694396 0.67451193053586 0.99549171683468 
H6    H     0.22600975278779 0.53565888931694 0.88992827732896 
H7    H     0.24991319426225 0.34111025281543 0.84333225759376 
H8    H     0.03011742195518 0.30980646903122 0.13836395515766 
H9    H     0.29237566367900 0.12718341666930 0.86538570249293 
H10   H     0.29909923261451 0.95873275787208 0.94510271358183 
H11   H     0.24314031052969 0.86699448952966 0.06157592643010 
H12   H     0.90696313830363 0.21083150535491 0.23827658201454 
H13   H     0.11774495275003 0.88170726363353 0.17549089984664 
H14   H     0.96077592860230 0.99747034806366 0.26120397095801 
C1    C     0.38115125430217 0.37829670458617 0.16932222017065 
C2    C     0.30119094698842 0.41533389879700 0.09505655525116 
C3    C     0.25239184816754 0.33441905261436 0.03247805229221 
C4    C     0.22646660598193 0.20999527734282 0.03984761342433 
C5    C     0.43323882800598 0.45715636130103 0.22753787472161 
C6    C     0.28929604904390 0.53857747931441 0.08104205469671 
C7    C     0.24467233257287 0.38050069219015 0.95927032304306 
C8    C     0.15676058485598 0.15483467411767 0.10084263673679 
C9    C     0.25789601370215 0.13615609038898 0.98059961593379 
C10   C     0.40571710167098 0.57799308914994 0.21443979839586 
C11   C     0.33537969874404 0.61743086854678 0.14223668807836 
C12   C     0.24820154440154 0.58052938993622 0.00550750938112 
C13   C     0.23755647261689 0.50401093933290 0.94719315124887 
C14   C     0.17012146017404 0.03044859765951 0.10959504208806 
C15   C     0.25181576842906 0.30366014896290 0.89845091248937 
C16   C     0.05575737673446 0.21679645695942 0.14770965032593 
C17   C     0.27333236128420 0.18574896295058 0.91041627565634 
C18   C     0.26698482265386 0.01218704044117 0.99042016378149 
C19   C     0.23465952572022 0.96153441112728 0.05448886019863 
C20   C     0.98607416335976 0.16116722665493 0.20383761961602 
C21   C     0.10441232463719 0.97635409936264 0.16946427850651 
C22   C     0.01527718847647 0.04022790228377 0.21654234875185 
