data_stdin
_audit_creation_method 'critic2'
_audit_creation_date 2023-8-11
_chemical_formula_sum 'C22 H14'
_cell_formula_units_Z 4
_cell_length_a         8.3904314378
_cell_length_b        20.0026584140
_cell_length_c         8.5691855282
_cell_angle_alpha        90.0039
_cell_angle_beta        90.0155
_cell_angle_gamma        90.0008
_cell_volume          1438.174355
_space_group_crystal_system orthorhombic
_space_group_IT_number 60
_space_group_name_H-M_alt 'Pbcn'
_space_group_name_Hall '-P 2n 2ab'
loop_
_symmetry_equiv_pos_site_id
_symmetry_equiv_pos_as_xyz
 1 'x,y,z'
 2 '-x,-y,-z'
 3 '-1/2-x,-1/2+y,-1/2-z'
 4 '-1/2+x,-1/2-y,-1/2+z'
 5 '-1/2+x,-y,-1/2-z'
 6 '-1/2-x,y,-1/2+z'
 7 '-x,-1/2-y,z'
 8 'x,-1/2+y,-z'
loop_
_atom_site_label
_atom_site_type_symbol
_atom_site_fract_x
_atom_site_fract_y
_atom_site_fract_z
H1    H     0.15182169994151 0.73905846020423 0.21104856057121 
H2    H     0.20883491987780 0.65986646019531 0.00117112952259 
H3    H     0.10300306963604 0.54357873017414 0.01079591989897 
H4    H     0.94994058942354 0.50608225986407 0.24458129948018 
H5    H     0.84943690968241 0.52575531005357 0.50431449959889 
H6    H     0.84958005989785 0.59623459975714 0.74262757997223 
H7    H     0.93579997949575 0.69381718002893 0.87933304970627 
C1    C     0.10263947056560 0.68893574005584 0.21787985942082 
C2    C     0.01163015958644 0.67014034022990 0.35026356024903 
C3    C     0.98595406003990 0.71426312009281 0.48278326984185 
C4    C     0.13585315043800 0.64414766016745 0.09935946039788 
C5    C     0.96163289051701 0.60171229006106 0.36010926037245 
C6    C     0.94496190941399 0.68370650988268 0.62756699002917 
C7    C     0.07744730006817 0.57817808996030 0.10562520042920 
C8    C     0.99189442980149 0.55748523011850 0.23441101037956 
C9    C     0.89154735966116 0.57724888016626 0.50059002017817 
C10   C     0.89062411969775 0.61612672004972 0.63144223983903 
C11   C     0.96597315034403 0.71886724976525 0.77043855001856 
