data_stdin
_audit_creation_method 'critic2'
_audit_creation_date 2023-8-11
_chemical_formula_sum 'C22 H14'
_cell_formula_units_Z 4
_cell_length_a        13.3593284721
_cell_length_b         5.4399864340
_cell_length_c        20.1070939610
_cell_angle_alpha        89.9993
_cell_angle_beta        94.8370
_cell_angle_gamma        89.9980
_cell_volume          1456.070114
_space_group_crystal_system monoclinic
_space_group_IT_number 14
_space_group_name_H-M_alt 'P2_1/c'
_space_group_name_Hall '-P 2ybc'
loop_
_symmetry_equiv_pos_site_id
_symmetry_equiv_pos_as_xyz
 1 'x,y,z'
 2 '-x,-y,-z'
 3 '-x,-1/2+y,-1/2-z'
 4 'x,-1/2-y,-1/2+z'
loop_
_atom_site_label
_atom_site_type_symbol
_atom_site_fract_x
_atom_site_fract_y
_atom_site_fract_z
H1    H     0.89837733987325 0.08034488041097 0.58031487023957 
H2    H     0.05980971021854 0.93551855912225 0.54571936025040 
H3    H     0.13178205974901 0.53675296046119 0.58715567009212 
H4    H     0.04699710009577 0.30410997001732 0.67341156997669 
H5    H     0.91772323012424 0.27707712984444 0.75115110987605 
H6    H     0.77669698985208 0.46978152007988 0.80299720981907 
H7    H     0.65242654022692 0.79070155048945 0.80776538022000 
H8    H     0.77595507965343 0.73408348981363 0.53040810022067 
H9    H     0.56769946023346 0.16702425084529 0.75970714978288 
H10   H     0.54325242025130 0.46614569091764 0.67242083993317 
H11   H     0.56381834982693 0.60286395039164 0.55668216016305 
H12   H     0.76096641992022 0.82095033064754 0.41084602011229 
H13   H     0.61026403988866 0.50242809949613 0.44595683009875 
H14   H     0.68244840012448 0.21473127016063 0.36718020977849 
C1    C     0.92793961967103 0.90495665926797 0.59880154013946 
C2    C     0.87376481980228 0.76825241928518 0.64384326009349 
C3    C     0.77793254006514 0.84829474020407 0.66566471014355 
C4    C     0.71178609009408 0.02453104921338 0.63096115977155 
C5    C     0.01911088996946 0.82378712990273 0.57933828007107 
C6    C     0.92161208972631 0.55463427044334 0.67354154009004 
C7    C     0.75038895013187 0.75304379063740 0.72760665991750 
C8    C     0.70613578987496 0.07254537010374 0.55954292016247 
C9    C     0.64177129003513 0.15150665074575 0.66818631998046 
C10   C     0.06074211033814 0.60024058924968 0.60379858015153 
C11   C     0.01329215006878 0.47005434023724 0.65103263985805 
C12   C     0.88110946976974 0.44005783940154 0.72915680982753 
C13   C     0.80223658027022 0.54570134066230 0.75733512975956 
C14   C     0.65305790987578 0.28487110078066 0.53344339012146 
C15   C     0.67146872971780 0.86512339048075 0.76007363982982 
C16   C     0.74211498003958 0.90609970046551 0.51284572023523 
C17   C     0.62341353984587 0.06905468976688 0.73315821020266 
C18   C     0.58961440015244 0.36174797052292 0.64044352012741 
C19   C     0.59981923029894 0.43576121086201 0.57655811979534 
C20   C     0.73292161027435 0.95453875053400 0.44510580003767 
C21   C     0.64821980024004 0.33543261077143 0.46414743992488 
C22   C     0.68783786978952 0.17402372913684 0.42038906995041 
