data_stdin
_audit_creation_method 'critic2'
_audit_creation_date 2023-8-11
_chemical_formula_sum 'C22 H14'
_cell_formula_units_Z 16
_cell_length_a        25.5940411602
_cell_length_b        25.5943861726
_cell_length_c         8.9649719638
_cell_angle_alpha        89.9999
_cell_angle_beta        90.0012
_cell_angle_gamma        89.9998
_cell_volume          5872.628360
_space_group_crystal_system tetragonal
_space_group_IT_number 88
_space_group_name_H-M_alt 'I4_1/a'
_space_group_name_Hall 'I 4bw -1bw'
loop_
_symmetry_equiv_pos_site_id
_symmetry_equiv_pos_as_xyz
 1 'x,y,z'
 2 '-1/4+y,-1/4-x,-1/4+z'
 3 '-x,-1/2-y,z'
 4 '-3/4-y,-1/4+x,-1/4+z'
 5 '-x,-y,-z'
 6 '-3/4-y,-3/4+x,-3/4-z'
 7 'x,-1/2+y,-z'
 8 '-3/4+y,-1/4-x,-1/4-z'
 9 '-1/2+x,-1/2+y,-1/2+z'
 10 '-3/4+y,-3/4-x,-3/4+z'
 11 '-1/2-x,-y,-1/2+z'
 12 '-1/4-y,-3/4+x,-3/4+z'
 13 '-1/2-x,-1/2-y,-1/2-z'
 14 '-1/4-y,-1/4+x,-1/4-z'
 15 '-1/2+x,y,-1/2-z'
 16 '-1/4+y,-3/4-x,-3/4-z'
loop_
_atom_site_label
_atom_site_type_symbol
_atom_site_fract_x
_atom_site_fract_y
_atom_site_fract_z
H1    H     0.72324765125490 0.25927908604474 0.88393459054464 
H2    H     0.69268497467323 0.20686152136720 0.67213427887727 
H3    H     0.60340383212064 0.16768741173119 0.67354339936697 
H4    H     0.54864477797643 0.17565012668093 0.90201670941541 
H5    H     0.53795827172016 0.20055952030272 0.15788636084197 
H6    H     0.57649166696878 0.23549150442868 0.39189547434976 
H7    H     0.64591832587589 0.27753169089236 0.52409899781812 
H8    H     0.66287545505580 0.33757804610642 0.88393948427096 
H9    H     0.73289440388828 0.32040303766189 0.52778578709742 
H10   H     0.80605295178811 0.35717644370582 0.40238084563161 
H11   H     0.84608385497459 0.39521361846119 0.17360701620889 
H12   H     0.69313972026534 0.39325511727682 0.68083572179224 
H13   H     0.83422054129872 0.42676085054419 0.92252464693819 
H14   H     0.78081848165843 0.43651107566298 0.69375871366020 
C1    C     0.68443618607055 0.24229870500429 0.88754368003355 
C2    C     0.65328583592677 0.24985561100968 0.01657342840779 
C3    C     0.67052495451434 0.27949877145322 0.14597710893146 
C4    C     0.71412598669185 0.31554553447045 0.14774551610599 
C5    C     0.66721809751707 0.21296383192671 0.76775402829293 
C6    C     0.60458734226141 0.22237504941042 0.02228749480044 
C7    C     0.64431670976753 0.26927362204379 0.28341051373857 
C8    C     0.73223595603359 0.34607653627949 0.02069031427528 
C9    C     0.73860662600117 0.32582926219647 0.28751768383167 
C10   C     0.61712686734860 0.19005015678204 0.76925578014862 
C11   C     0.58673430344420 0.19442975811548 0.89582898029889 
C12   C     0.57541829802933 0.22076408249171 0.15761017441742 
C13   C     0.59619194547970 0.24099382218987 0.28528266466467 
C14   C     0.78026857275284 0.37465126463136 0.03216057820526 
C15   C     0.66645500843361 0.28615395368823 0.42062374338988 
C16   C     0.70148600357104 0.35480742136462 0.89146974022358 
C17   C     0.71407162951256 0.31035008127400 0.42277136257997 
C18   C     0.78697309791031 0.35364289785634 0.29419638602629 
C19   C     0.80864678216813 0.37496104095797 0.16927862163561 
C20   C     0.71846368995896 0.38664141281048 0.77660153371560 
C21   C     0.79738393111252 0.40589816102575 0.91138912797502 
C22   C     0.76739503343947 0.41166349549861 0.78443313988850 
