data_stdin
_audit_creation_method 'critic2'
_audit_creation_date 2023-8-11
_chemical_formula_sum 'C22 H14'
_cell_formula_units_Z 4
_cell_length_a        10.0187226007
_cell_length_b         4.6897698852
_cell_length_c        31.8165750447
_cell_angle_alpha        90.0053
_cell_angle_beta        82.1932
_cell_angle_gamma        90.0033
_cell_volume          1481.062403
_space_group_crystal_system monoclinic
_space_group_IT_number 14
_space_group_name_H-M_alt 'P2_1/c'
_space_group_name_Hall '-P 2ybc'
loop_
_symmetry_equiv_pos_site_id
_symmetry_equiv_pos_as_xyz
 1 'x,y,z'
 2 '-x,-y,-z'
 3 '-x,-1/2+y,-1/2-z'
 4 'x,-1/2-y,-1/2+z'
loop_
_atom_site_label
_atom_site_type_symbol
_atom_site_fract_x
_atom_site_fract_y
_atom_site_fract_z
H1    H     0.43441973997176 0.03723164011299 0.18555328014263 
H2    H     0.41750399968043 0.97823585088430 0.26231890993843 
H3    H     0.26320767975164 0.60948330051828 0.29957259985592 
H4    H     0.11336500020279 0.33180381088646 0.25866599988825 
H5    H     0.02497326989160 0.23129212916450 0.19280542008866 
H6    H     0.00992501027742 0.36204105948237 0.11803694010785 
H7    H     0.07413811020024 0.66370898099088 0.05743794991739 
H8    H     0.53110334042415 0.54912212014750 0.15522749994824 
H9    H     0.22453637953420 0.03617672935414 0.02051288993943 
H10   H     0.42690528959216 0.31689284075621 0.01506175991438 
H11   H     0.65550908992959 0.39938314984237 0.03464224989763 
H12   H     0.77096223962734 0.55989285053591 0.16350407991771 
H13   H     0.83750755033284 0.23328754915396 0.07121110998474 
H14   H     0.92551928034461 0.90885318101779 0.12315741998458 
C1    C     0.36713854030137 0.87560495956947 0.20095440996327 
C2    C     0.28916878027438 0.70865529946036 0.17621328986082 
C3    C     0.29483002018210 0.74342785985541 0.13065040990973 
C4    C     0.40059345944968 0.89052599017654 0.10367287015184 
C5    C     0.35706370985471 0.84306759946439 0.24442870984258 
C6    C     0.19129848961750 0.51994143992113 0.19833415998293 
C7    C     0.18326653012952 0.64167091902688 0.11172081999011 
C8    C     0.54106957994571 0.89808343897281 0.11038158003290 
C9    C     0.36759758015494 0.01674609105160 0.06575541012914 
C10   C     0.26799983043595 0.64049799020623 0.26550544996825 
C11   C     0.18552195982496 0.48412323940451 0.24275777990193 
C12   C     0.09601470009344 0.38088985961070 0.17580646001339 
C13   C     0.08889203993864 0.45030390009694 0.13450460995905 
C14   C     0.63270816012693 0.08249811030298 0.08479549010601 
C15   C     0.16215268947909 0.74021443983649 0.07079685007410 
C16   C     0.59622938016127 0.70694597914619 0.13794385999083 
C17   C     0.24555741961957 0.94198924945547 0.05023228005478 
C18   C     0.45970801026967 0.20822804076028 0.04207553000509 
C19   C     0.58595532031432 0.25039482962205 0.05241632987579 
C20   C     0.73148003995314 0.71079330935194 0.14231825003373 
C21   C     0.77049873018267 0.08598953105725 0.09041197011941 
C22   C     0.81948204974893 0.90588472914855 0.11903676995028 
