data_stdin
_audit_creation_method 'critic2'
_audit_creation_date 2023-8-11
_chemical_formula_sum 'C22 H14'
_cell_formula_units_Z 8
_cell_length_a        35.1089905301
_cell_length_b         5.0707770828
_cell_length_c        19.9761966739
_cell_angle_alpha        90.0368
_cell_angle_beta        55.0996
_cell_angle_gamma        90.0383
_cell_volume          2916.740879
_space_group_crystal_system triclinic
_space_group_IT_number 2
_space_group_name_H-M_alt 'P-1'
_space_group_name_Hall '-P 1'
loop_
_symmetry_equiv_pos_site_id
_symmetry_equiv_pos_as_xyz
 1 'x,y,z'
 2 '-x,-y,-z'
 3 '-1/2+x,-1/2+y,z'
 4 '-1/2-x,-1/2-y,-z'
loop_
_atom_site_label
_atom_site_type_symbol
_atom_site_fract_x
_atom_site_fract_y
_atom_site_fract_z
H1    H     0.43527445133230 0.41271325634095 0.50182441190895 
H2    H     0.56466285103902 0.41272873079638 0.99825115270364 
H3    H     0.51866100504393 0.50505193234934 0.42590066842098 
H4    H     0.48129938790233 0.50550810838264 0.07414429987425 
H5    H     0.55295825894178 0.89182320482177 0.33341700436822 
H6    H     0.44711747537531 0.89250649686305 0.16651995471244 
H7    H     0.50266236921087 0.17458268763165 0.31199433305573 
H8    H     0.49742176330274 0.17520130954488 0.18801619543550 
H9    H     0.42846159594143 0.26010932007312 0.33235012959268 
H10   H     0.57168667155096 0.26056552117681 0.16769405136120 
H11   H     0.35028545517832 0.09541638148474 0.37993822576579 
H12   H     0.64981500263176 0.09544016698963 0.12013983502485 
H13   H     0.29070614746334 0.75913130757168 0.44750567538662 
H14   H     0.70930274254636 0.75891172842928 0.05258816797257 
H15   H     0.39493620528035 0.82313193132544 0.59888870662693 
H16   H     0.60505395825268 0.82302627952800 0.90121177100928 
H17   H     0.25552990496778 0.37487567841959 0.54157257741555 
H18   H     0.74438511038394 0.37449138251178 0.95849287693189 
H19   H     0.25287438870547 0.07596961352048 0.63766679934784 
H20   H     0.74700604939202 0.07576113809810 0.86233293125092 
H21   H     0.27616344599257 0.95883996388882 0.72950478262242 
H22   H     0.72373427501179 0.95879465982633 0.77041859686443 
H23   H     0.40452483716503 0.75976417713569 0.70984354558047 
H24   H     0.59549131160515 0.75975545567760 0.79020104038300 
H25   H     0.31464401880207 0.08194685541603 0.79350587140657 
H26   H     0.68527831254483 0.08190261781744 0.70643508982956 
H27   H     0.36672459479077 0.38180720786387 0.80602134451572 
H28   H     0.63325628844425 0.38181862557062 0.69393814185717 
C1    C     0.44933244214936 0.58522755836632 0.46265102970795 
C2    C     0.55066497249309 0.58539441905723 0.03740001150157 
C3    C     0.41941263651769 0.74561584091547 0.45386034284497 
C4    C     0.58060853228225 0.74582978594884 0.04619996344741 
C5    C     0.37038890950462 0.68702980216796 0.49432653415578 
C6    C     0.62961568709678 0.68708062607687 0.00573288548528 
C7    C     0.34336214699125 0.51631608781086 0.56431071230233 
C8    C     0.65659908208536 0.51626119465254 0.93573251061980 
C9    C     0.49637263459475 0.63665588230802 0.41973474231447 
C10   C     0.50364162328689 0.63698784241304 0.08027249645223 
C11   C     0.44010706103008 0.95452344054253 0.39512985395703 
C12   C     0.55996230523053 0.95490675253659 0.10491641571360 
C13   C     0.34849169620246 0.79235618119179 0.45834468178310 
C14   C     0.65153451833655 0.79235996191348 0.04172351465404 
C15   C     0.35130208542713 0.47961210664647 0.62758052022257 
C16   C     0.64865373550570 0.47955657459987 0.87245326634273 
C17   C     0.30377610396814 0.38943535360627 0.57596738396526 
C18   C     0.69615556165150 0.38928206219503 0.92407316025482 
C19   C     0.51585675122827 0.85419761809008 0.36656096930939 
C20   C     0.48420758690121 0.85473118683844 0.13341897641289 
C21   C     0.48802898772326 0.00977022039441 0.35452341984333 
C22   C     0.51205331046024 0.01031515360261 0.14548441088266 
C23   C     0.41306194730521 0.09253172187079 0.37375781140344 
C24   C     0.58703901330585 0.09286235816316 0.12629862565510 
C25   C     0.36977788170278 0.00381066693438 0.40089255760476 
C26   C     0.63029665891329 0.00392817348496 0.09918150983528 
C27   C     0.32660331852741 0.27622879573123 0.68713638263327 
C28   C     0.67333098509201 0.27618381960936 0.81285290522263 
C29   C     0.30593814883395 0.68263413685548 0.47812706299899 
C30   C     0.69405857231305 0.68247560490223 0.02194962292311 
C31   C     0.37859381957205 0.65461279546263 0.63914537265638 
C32   C     0.62138451839936 0.65454216414101 0.86091008251361 
C33   C     0.28621134197437 0.47345591366525 0.53066437991352 
C34   C     0.71373240727715 0.47321733877771 0.96939806020000 
C35   C     0.28088071652623 0.18236341554281 0.63443334891017 
C36   C     0.71902326411243 0.18220811787938 0.86556765675620 
C37   C     0.29335958395499 0.11889644492997 0.68576760511231 
C38   C     0.70655123589101 0.11882252972867 0.81419664587409 
C39   C     0.38373041406095 0.62023245521236 0.70218841012673 
C40   C     0.61625933582068 0.62019210341603 0.79784213100144 
C41   C     0.33328549336257 0.24186589535142 0.75015132281397 
C42   C     0.66665586695213 0.24183385975073 0.74981748361960 
C43   C     0.36178181757963 0.40907787775692 0.75742413832328 
C44   C     0.63818978186772 0.40905919192677 0.74255658247392 
