data_stdin
_audit_creation_method 'critic2'
_audit_creation_date 2023-8-11
_chemical_formula_sum 'C22 H14'
_cell_formula_units_Z 4
_cell_length_a         5.8608596954
_cell_length_b        17.1542612303
_cell_length_c        15.2320598946
_cell_angle_alpha        90.0021
_cell_angle_beta        66.9216
_cell_angle_gamma        90.0026
_cell_volume          1408.851516
_space_group_crystal_system monoclinic
_space_group_IT_number 14
_space_group_name_H-M_alt 'P2_1/c'
_space_group_name_Hall '-P 2ybc'
loop_
_symmetry_equiv_pos_site_id
_symmetry_equiv_pos_as_xyz
 1 'x,y,z'
 2 '-x,-y,-z'
 3 '-x,-1/2+y,-1/2-z'
 4 'x,-1/2-y,-1/2+z'
loop_
_atom_site_label
_atom_site_type_symbol
_atom_site_fract_x
_atom_site_fract_y
_atom_site_fract_z
H1    H     0.48578208997692 0.12314078993320 0.51886545991522 
H2    H     0.68368771982058 0.00760270994078 0.42436381011145 
H3    H     0.14280402979913 0.99653696012818 0.34971151012520 
H4    H     0.40305820008487 0.10929268984809 0.35657471969275 
H5    H     0.43758145973710 0.24436285988628 0.40005360980792 
H6    H     0.23352656063363 0.37058369004010 0.46139447020665 
H7    H     0.86363487004679 0.44747242003820 0.53908726984142 
H8    H     0.64900029000116 0.11857786008571 0.66076101017968 
H9    H     0.40790522066642 0.45676906976866 0.62947170000632 
H10   H     0.00852763067391 0.39494469991439 0.71101090985121 
H11   H     0.75449814063471 0.27810826973084 0.77721113000835 
H12   H     0.40777394089827 0.01109886018810 0.76154153972577 
H13   H     0.73575614048522 0.14299669018822 0.82989538015445 
H14   H     0.94773645043095 0.02108319981985 0.84318350965346 
C1    C     0.68689652018242 0.11955628980735 0.48639505018718 
C2    C     0.82944329087639 0.18256345018164 0.49763180969256 
C3    C     0.71901562950924 0.25230121976496 0.55191011035810 
C4    C     0.47017759041191 0.25711882975205 0.62382075009038 
C5    C     0.79789670993252 0.05447160983704 0.43328266989156 
C6    C     0.09207624958453 0.17966534009357 0.44480958977263 
C7    C     0.86447624047941 0.32156644996669 0.52830147963927 
C8    C     0.33216137910566 0.19195264025554 0.68126783012034 
C9    C     0.35441677088886 0.33167191027803 0.64491021989095 
C10   C     0.05805846900202 0.04883115024744 0.38955147025096 
C11   C     0.20213228998582 0.11099885995295 0.39432287007426 
C12   C     0.23733119014803 0.24785548012947 0.43798777009520 
C13   C     0.12502432955509 0.31717117993138 0.47326681969334 
C14   C     0.07083685064523 0.19972334999204 0.73504065007850 
C15   C     0.74949574976253 0.39510878011899 0.55955432967230 
C16   C     0.44841017014059 0.12324292972903 0.69476926993607 
C17   C     0.49879092065898 0.40020868025542 0.61076969012610 
C18   C     0.09438701047703 0.33760126004017 0.70035751991829 
C19   C     0.95426229971661 0.27327182985904 0.73871622986429 
C20   C     0.31300711034691 0.06296361009744 0.75180220966237 
C21   C     0.93485529022490 0.13622268972310 0.79034409002783 
C22   C     0.05319166089289 0.06862468021365 0.79817875982655 
