data_stdin
_audit_creation_method 'critic2'
_audit_creation_date 2023-8-11
_chemical_formula_sum 'C22 H14'
_cell_formula_units_Z 16
_cell_length_a        25.5817084707
_cell_length_b        25.5822729408
_cell_length_c         8.8958730702
_cell_angle_alpha        89.9999
_cell_angle_beta        89.9998
_cell_angle_gamma        89.9993
_cell_volume          5821.799590
_space_group_crystal_system tetragonal
_space_group_IT_number 88
_space_group_name_H-M_alt 'I4_1/a'
_space_group_name_Hall 'I 4bw -1bw'
loop_
_symmetry_equiv_pos_site_id
_symmetry_equiv_pos_as_xyz
 1 'x,y,z'
 2 '-3/4+y,-3/4-x,-3/4+z'
 3 '-x,-1/2-y,z'
 4 '-1/4-y,-3/4+x,-3/4+z'
 5 '-x,-y,-z'
 6 '-1/4-y,-1/4+x,-1/4-z'
 7 'x,-1/2+y,-z'
 8 '-1/4+y,-3/4-x,-3/4-z'
 9 '-1/2+x,-1/2+y,-1/2+z'
 10 '-1/4+y,-1/4-x,-1/4+z'
 11 '-1/2-x,-y,-1/2+z'
 12 '-3/4-y,-1/4+x,-1/4+z'
 13 '-1/2-x,-1/2-y,-1/2-z'
 14 '-3/4-y,-3/4+x,-3/4-z'
 15 '-1/2+x,y,-1/2-z'
 16 '-3/4+y,-1/4-x,-1/4-z'
loop_
_atom_site_label
_atom_site_type_symbol
_atom_site_fract_x
_atom_site_fract_y
_atom_site_fract_z
H1    H     0.25842396995361 0.77955808000451 0.36193834951202 
H2    H     0.20243224988849 0.81208067999526 0.15817112984804 
H3    H     0.15922733002201 0.89910796012408 0.17836182956493 
H4    H     0.16578254006894 0.94898075015999 0.41867292966255 
H5    H     0.19243544004562 0.95422239017278 0.68047106980793 
H6    H     0.23111894998443 0.91152964986599 0.90351517963026 
H7    H     0.27633166004513 0.83889793015149 0.01836224006678 
H8    H     0.33281964994355 0.84880795009874 0.37043048984050 
H9    H     0.32565648006905 0.75576353008904 0.99704509015392 
H10   H     0.37034883985522 0.69164484011014 0.84919753949149 
H11   H     0.41039773989096 0.66376194014376 0.60917917950464 
H12   H     0.38595892987405 0.82896103982288 0.15030851981014 
H13   H     0.43540975993295 0.68432629006106 0.35390344956023 
H14   H     0.43452282993671 0.74405981019157 0.13282751016015 
C1    C     0.23943952995568 0.81729851988174 0.37372309033021 
C2    C     0.24645907985904 0.84595284010904 0.50863750979170 
C3    C     0.27842760980572 0.82745379998706 0.63264814998021 
C4    C     0.31804943999393 0.78732054989830 0.62141180944842 
C5    C     0.20824968992617 0.83569080012789 0.25847703957319 
C6    C     0.21636217992660 0.89275934016556 0.52635784987200 
C7    C     0.26733333993058 0.84846360980590 0.77755548029519 
C8    C     0.34886893008424 0.77630302996200 0.48768069045479 
C9    C     0.33127796999739 0.75921967992999 0.75438300034705 
C10   C     0.18290642997547 0.88446300991484 0.27095860967183 
C11   C     0.18666868014644 0.91216648984566 0.40378196039248 
C12   C     0.21433907008045 0.91798361986294 0.66927031962623 
C13   C     0.23650059012383 0.89476429002495 0.79189720047810 
C14   C     0.38166057993646 0.73086204008823 0.48429843984609 
C15   C     0.28627731981367 0.82287631017500 0.90864131948366 
C16   C     0.35301577008487 0.81155358981885 0.36521434947450 
C17   C     0.31412377010077 0.77743661000292 0.89711308976084 
C18   C     0.36368366981904 0.71387645995532 0.74659024032948 
C19   C     0.38620925000522 0.69870857012606 0.61455752966820 
C20   C     0.38345888981584 0.80047306010229 0.24098451994185 
C21   C     0.41161229012865 0.71968817994501 0.35417713958980 
C22   C     0.41178705018735 0.75329008982729 0.23283179993091 
