data_stdin
_audit_creation_method 'critic2'
_audit_creation_date 2023-8-11
_chemical_formula_sum 'C22 H14'
_cell_formula_units_Z 4
_cell_length_a        10.4615178816
_cell_length_b         8.9770478104
_cell_length_c        16.2456559090
_cell_angle_alpha        89.9994
_cell_angle_beta       109.2318
_cell_angle_gamma        90.0003
_cell_volume          1440.544479
_space_group_crystal_system monoclinic
_space_group_IT_number 14
_space_group_name_H-M_alt 'P2_1/c'
_space_group_name_Hall '-P 2ybc'
loop_
_symmetry_equiv_pos_site_id
_symmetry_equiv_pos_as_xyz
 1 'x,y,z'
 2 '-x,-y,-z'
 3 '-x,-1/2+y,-1/2-z'
 4 'x,-1/2-y,-1/2+z'
loop_
_atom_site_label
_atom_site_type_symbol
_atom_site_fract_x
_atom_site_fract_y
_atom_site_fract_z
H1    H     0.58650874982181 0.04726437978148 0.73453516019904 
H2    H     0.42753987006968 0.07299697044614 0.81457220029850 
H3    H     0.22320686981354 0.90705524016949 0.78085473985563 
H4    H     0.17831183041652 0.72612989022710 0.65991291998223 
H5    H     0.23411040010746 0.61476976986417 0.54178177980574 
H6    H     0.37039574994723 0.61739154970190 0.44220382025015 
H7    H     0.54448376046921 0.72204691967941 0.39674003016566 
H8    H     0.69894710948998 0.79814155959360 0.78257628974353 
H9    H     0.73976403975636 0.89537918969540 0.42121270022416 
H10   H     0.90815960973422 0.05379052001304 0.51404093011444 
H11   H     0.04078573021841 0.14465085053331 0.66214394029792 
H12   H     0.86026374958247 0.84394727015507 0.92757429986094 
H13   H     0.09647695053054 0.12551907005690 0.81791159020749 
H14   H     0.05880682013330 0.01419117991139 0.94765056030422 
C1    C     0.50104264044687 0.97145814053474 0.71977478997958 
C2    C     0.48320117999030 0.86199901963610 0.65398977985910 
C3    C     0.57453918979097 0.84410855998057 0.60367719004779 
C4    C     0.70862193976291 0.90832269988022 0.62584419995895 
C5    C     0.40984342962741 0.98757117018121 0.76449981990236 
C6    C     0.36058309986780 0.77680039949444 0.63069719978578 
C7    C     0.52312053000369 0.76699659997110 0.52256759002853 
C8    C     0.79924916039483 0.93837041967851 0.71378449005010 
C9    C     0.76068041032517 0.93579116947995 0.55643936029001 
C10   C     0.29439632956225 0.89579715014603 0.74515089970341 
C11   C     0.26980786975522 0.79364699988745 0.67827008984576 
C12   C     0.32590142020960 0.68112124951985 0.55654153030938 
C13   C     0.40166579044409 0.68133079949944 0.50252114020052 
C14   C     0.91905065001955 0.02512564009247 0.72559915972278 
C15   C     0.58847854972466 0.77953128052364 0.45873144024829 
C16   C     0.78343404978134 0.87302923031407 0.78935149984476 
C17   C     0.69753813027315 0.87181900054455 0.47284363019649 
C18   C     0.87887034014694 0.02511165004965 0.57053127968904 
C19   C     0.95235175011718 0.07416581945262 0.65173772969131 
C20   C     0.87518401958216 0.89874435021945 0.87158422980662 
C21   C     0.00889092982356 0.05448378998516 0.81069055975839 
C22   C     0.98769701049030 0.99254529992328 0.88287681004871 
