data_stdin
_audit_creation_method 'critic2'
_audit_creation_date 2023-8-11
_chemical_formula_sum 'C22 H14'
_cell_formula_units_Z 4
_cell_length_a        11.1881293306
_cell_length_b        10.3063311400
_cell_length_c        13.6135853820
_cell_angle_alpha        90.0000
_cell_angle_beta        68.1944
_cell_angle_gamma        90.0000
_cell_volume          1457.446179
_space_group_crystal_system monoclinic
_space_group_IT_number 14
_space_group_name_H-M_alt 'P2_1/c'
_space_group_name_Hall '-P 2ybc'
loop_
_symmetry_equiv_pos_site_id
_symmetry_equiv_pos_as_xyz
 1 'x,y,z'
 2 '-x,-y,-z'
 3 '-x,-1/2+y,-1/2-z'
 4 'x,-1/2-y,-1/2+z'
loop_
_atom_site_label
_atom_site_type_symbol
_atom_site_fract_x
_atom_site_fract_y
_atom_site_fract_z
H1    H     0.89312209046554 0.56078674955668 0.89518791964740 
H2    H     0.90011999017192 0.52397813971408 0.07134084963276 
H3    H     0.74945755983446 0.36685707041158 0.19642852974417 
H4    H     0.57333647985505 0.27028492988579 0.15112790025692 
H5    H     0.44856155991812 0.26279969000665 0.03859176964394 
H6    H     0.41166797997298 0.34267618992930 0.88016935995136 
H7    H     0.47509211025095 0.46946543022547 0.72243189039370 
H8    H     0.94627737005133 0.32571353032718 0.79870143037076 
H9    H     0.63361713993312 0.61040565043882 0.58862379012041 
H10   H     0.84523575008325 0.70401667041048 0.51194063024083 
H11   H     0.07267222043663 0.71684244955330 0.49688526984530 
H12   H     0.17829669991388 0.30145615036692 0.75156625988008 
H13   H     0.24748314966171 0.62725316038747 0.53941432980003 
H14   H     0.33186431026004 0.45917676960377 0.62712274012756 
C1    C     0.82519140972072 0.49365758990317 0.94924321981151 
C2    C     0.73170021978573 0.43242722036014 0.91768049029955 
C3    C     0.72147101005359 0.45527762980490 0.81570503980516 
C4    C     0.82221274966274 0.50946915013004 0.72429013977849 
C5    C     0.82963028023319 0.47270465003670 0.04825884972271 
C6    C     0.63458553037884 0.35731093972124 0.99584700966842 
C7    C     0.59929737057667 0.43204721009271 0.80888843961769 
C8    C     0.95931813045673 0.49491980015194 0.70062555997745 
C9    C     0.78579682007790 0.57519790982316 0.64760626014625 
C10   C     0.74270517984674 0.38629929016504 0.12002185022713 
C11   C     0.64577248997925 0.33120745998177 0.09419520986006 
C12   C     0.52248148959283 0.31789290035918 0.97738571991352 
C13   C     0.50280202989553 0.36034852970227 0.88960614995467 
C14   C     0.04837560038975 0.57471211039903 0.62065177974700 
C15   C     0.57076195014350 0.48523130019444 0.72366712029042 
C16   C     0.01087985944310 0.39483952954492 0.74442645024278 
C17   C     0.65826573035633 0.56227224042009 0.64970675983166 
C18   C     0.87773941994197 0.65128821988977 0.56680941030654 
C19   C     0.00339218940376 0.65706063964281 0.55740621035581 
C20   C     0.14223796011371 0.38075968998334 0.71749500976489 
C21   C     0.18196174989686 0.56319701957856 0.59856562021347 
C22   C     0.22852565983099 0.46840606954681 0.64659311019403 
