data_stdin
_audit_creation_method 'critic2'
_audit_creation_date 2023-8-11
_chemical_formula_sum 'C22 H14'
_cell_formula_units_Z 2
_cell_length_a        10.6337298555
_cell_length_b         8.0383107500
_cell_length_c         8.9455850912
_cell_angle_alpha        90.0000
_cell_angle_beta        70.9785
_cell_angle_gamma        90.0000
_cell_volume           722.891473
_space_group_crystal_system monoclinic
_space_group_IT_number 4
_space_group_name_H-M_alt 'P2_1'
_space_group_name_Hall 'P 2yb'
loop_
_symmetry_equiv_pos_site_id
_symmetry_equiv_pos_as_xyz
 1 'x,y,z'
 2 '-x,-1/2+y,-z'
loop_
_atom_site_label
_atom_site_type_symbol
_atom_site_fract_x
_atom_site_fract_y
_atom_site_fract_z
H1    H     0.60613245020604 0.99402913972984 0.37153351980293 
H2    H     0.42315977004101 0.01055952958760 0.26373307985153 
H3    H     0.20700232994843 0.14428872022853 0.42128153984645 
H4    H     0.17295181979934 0.23033992986019 0.69631563020745 
H5    H     0.25260635033381 0.25983068955283 0.92141261946780 
H6    H     0.42634136025197 0.20910197972484 0.04448524013111 
H7    H     0.64040431006925 0.10141557992096 0.03223602965630 
H8    H     0.66846002950757 0.30273487988774 0.38655484035049 
H9    H     0.85792988048325 0.97468943047056 0.87989057941224 
H10   H     0.01623814973534 0.88752849999620 0.63338048942431 
H11   H     0.10194669966035 0.89429445001789 0.34100429047948 
H12   H     0.78220989059724 0.37057061974259 0.10981091952445 
H13   H     0.09901511019528 0.03179575969718 0.09916731024433 
H14   H     0.99565659043793 0.22853511954446 0.95853015993029 
C1    C     0.51392262955711 0.05237307023970 0.44148287046812 
C2    C     0.50182679982724 0.11391734061212 0.59384598985639 
C3    C     0.60983290979202 0.10964086058351 0.66008889024224 
C4    C     0.74767756004935 0.07834053036787 0.57051411954489 
C5    C     0.41021224962937 0.06187834048449 0.38051483044219 
C6    C     0.37301980970254 0.17073901058274 0.68947222050522 
C7    C     0.57560871016759 0.12798536039336 0.82722153966388 
C8    C     0.81130763976314 0.11774206049458 0.40424055036577 
C9    C     0.83135798991569 0.01352148059108 0.65263586046044 
C10   C     0.28784979969654 0.13294146989712 0.46993148975423 
C11   C     0.26916400972867 0.18238909943144 0.62336112957541 
C12   C     0.34974618028240 0.21173644972672 0.85143293951556 
C13   C     0.44612831020293 0.18504850012401 0.91899682988379 
C14   C     0.93921238021419 0.04819415002913 0.32153954971153 
C15   C     0.66902511990749 0.08623844006410 0.90450484056896 
C16   C     0.75973091985068 0.23745097039507 0.32341944960969 
C17   C     0.78961004998049 0.01884538052617 0.82057352990676 
C18   C     0.95850168955993 0.94540642954146 0.56691179047508 
C19   C     0.00700797012394 0.95198542978501 0.40569711969353 
C20   C     0.82492552947837 0.27676145062057 0.16674531021652 
C21   C     0.00216170012468 0.08693034031086 0.15980895990773 
C22   C     0.94573100979748 0.19816847943769 0.08242116972480 
