data_stdin
_audit_creation_method 'critic2'
_audit_creation_date 2023-8-11
_chemical_formula_sum 'C22 H14'
_cell_formula_units_Z 2
_cell_length_a         5.4050366411
_cell_length_b        14.8606598907
_cell_length_c         9.4197747451
_cell_angle_alpha        94.9409
_cell_angle_beta        83.9628
_cell_angle_gamma       106.5740
_cell_volume           719.909654
_space_group_crystal_system triclinic
_space_group_IT_number 2
_space_group_name_H-M_alt 'P-1'
_space_group_name_Hall '-P 1'
loop_
_symmetry_equiv_pos_site_id
_symmetry_equiv_pos_as_xyz
 1 'x,y,z'
 2 '-x,-y,-z'
loop_
_atom_site_label
_atom_site_type_symbol
_atom_site_fract_x
_atom_site_fract_y
_atom_site_fract_z
H1    H     0.83454794089565 0.37224691998385 0.62097084989781 
H2    H     0.06681950939315 0.53989611004112 0.61466485998685 
H3    H     0.48366241943855 0.60407330986346 0.72505490016351 
H4    H     0.64772134938240 0.49952207010885 0.86211506050360 
H5    H     0.58823248002118 0.34946615996148 0.96336244989551 
H6    H     0.30371658904407 0.18959777999980 0.01348191028237 
H7    H     0.90810483041041 0.06719551023241 0.98724277985895 
H8    H     0.15974182930706 0.28739875994588 0.47130740955885 
H9    H     0.49885337004278 0.99846349018429 0.86850818053526 
H10   H     0.21622994925019 0.00295400999622 0.68991234018246 
H11   H     0.14443410989771 0.06289941000220 0.46375971952501 
H12   H     0.12488737048994 0.31239263985707 0.22037006995465 
H13   H     0.32884597042952 0.14656385981634 0.25209550043509 
H14   H     0.70921586076160 0.24614666996385 0.11000646015911 
C1    C     0.01750974939247 0.39851965978805 0.66915593949290 
C2    C     0.11232545923296 0.33576809996386 0.73861194963678 
C3    C     0.97616593100303 0.23652449019305 0.74754611954017 
C4    C     0.77705336017562 0.18462740032031 0.65720874967134 
C5    C     0.14790974005480 0.49305800977265 0.66571387964828 
C6    C     0.33733822029055 0.37529248995076 0.81547460035400 
C7    C     0.03275940989960 0.18920542016020 0.85988903002906 
C8    C     0.76044508063730 0.20511163978261 0.51099060995549 
C9    C     0.59175630033567 0.10328148006850 0.71080141034435 
C10   C     0.38194139014125 0.52968408985757 0.73070232983509 
C11   C     0.47319405965727 0.47173326018794 0.80577339975210 
C12   C     0.41287945936461 0.31886388012708 0.90864884995993 
C13   C     0.25765463985079 0.23082196977775 0.93508926012977 
C14   C     0.52763079948464 0.16106926002908 0.44309084034430 
C15   C     0.86243446963186 0.10103616026898 0.89907408024912 
C16   C     0.97490428095846 0.25870083039103 0.42574823012889 
C17   C     0.63864351072947 0.06281791019693 0.83317900965907 
C18   C     0.36107623014758 0.06136897015991 0.64067104029414 
C19   C     0.32274696917704 0.09318052987007 0.51555006991358 
C20   C     0.95617851996953 0.27265445010369 0.28451786998014 
C21   C     0.51051974057092 0.17942801026517 0.29987344983102 
C22   C     0.72070554986862 0.23450709987954 0.22129358043664 
