data_stdin
_audit_creation_method 'critic2'
_audit_creation_date 2023-8-11
_chemical_formula_sum 'C22 H14'
_cell_formula_units_Z 4
_cell_length_a        17.7192765351
_cell_length_b        10.0178792900
_cell_length_c         8.5726804998
_cell_angle_alpha        90.0000
_cell_angle_beta        78.3635
_cell_angle_gamma        89.9999
_cell_volume          1490.456365
_space_group_crystal_system monoclinic
_space_group_IT_number 14
_space_group_name_H-M_alt 'P2_1/c'
_space_group_name_Hall '-P 2ybc'
loop_
_symmetry_equiv_pos_site_id
_symmetry_equiv_pos_as_xyz
 1 'x,y,z'
 2 '-x,-y,-z'
 3 '-x,-1/2+y,-1/2-z'
 4 'x,-1/2-y,-1/2+z'
loop_
_atom_site_label
_atom_site_type_symbol
_atom_site_fract_x
_atom_site_fract_y
_atom_site_fract_z
H1    H     0.33458015005337 0.11592977952030 0.50992110970357 
H2    H     0.47441657982364 0.14711074005705 0.45782586942023 
H3    H     0.55890173026980 0.03042076986079 0.22946611985045 
H4    H     0.50164679984581 0.86200662974212 0.07645980964835 
H5    H     0.39083691023714 0.72597225021395 0.03911221976031 
H6    H     0.25551601010941 0.65753763996189 0.13822453986487 
H7    H     0.13351982983289 0.68323574987666 0.31897256978565 
H8    H     0.29660064013755 0.20296020950478 0.24799111052454 
H9    H     0.04712178019214 0.80986963026935 0.53263765997207 
H10   H     0.01889569017374 0.00711935000909 0.69696530954257 
H11   H     0.04550162975531 0.24322463950571 0.75188614031047 
H12   H     0.30771018992655 0.44619991953915 0.27216586949088 
H13   H     0.11635369010787 0.44832272008851 0.66949999962350 
H14   H     0.22092389987738 0.56960845047765 0.48909480015323 
C1    C     0.37039430012106 0.06186999042809 0.41259472025621 
C2    C     0.33511864980976 0.97243436008879 0.32092569953340 
C3    C     0.25261027028866 0.94871481032441 0.35255508959644 
C4    C     0.19559390987788 0.03678029014355 0.44340445994499 
C5    C     0.44920003990442 0.08066892020301 0.38207069955714 
C6    C     0.38469732028466 0.89320115996088 0.20404209940523 
C7    C     0.22720887026018 0.82538365955356 0.29859160966567 
C8    C     0.20361027999860 0.18074947043779 0.45318155010442 
C9    C     0.12386283996962 0.97989703978762 0.51950452048613 
C10   C     0.49704433016301 0.01218052956496 0.25619584951628 
C11   C     0.46500548972325 0.91891011994412 0.17031937997324 
C12   C     0.35334443015648 0.78382605014811 0.13111853054314 
C13   C     0.27831274029423 0.74696015987520 0.18419718981898 
C14   C     0.14903376023510 0.25436793004190 0.56704482994582 
C15   C     0.15121530999519 0.77873524005160 0.36062603008681 
C16   C     0.25890380007414 0.25484005954303 0.34461594975804 
C17   C     0.10341624014076 0.84928154017009 0.47720217013896 
C18   C     0.07115710985209 0.05588256979428 0.63372935021204 
C19   C     0.08513816012920 0.18674433978092 0.66222653991579 
C20   C     0.26469139983606 0.39178765020940 0.35722175038406 
C21   C     0.15693893981001 0.39442611040898 0.57881049050391 
C22   C     0.21470387989935 0.46231815008882 0.47774617030585 
