data_stdin
_audit_creation_method 'critic2'
_audit_creation_date 2023-8-11
_chemical_formula_sum 'C22 H14'
_cell_formula_units_Z 4
_cell_length_a        10.0312431752
_cell_length_b        15.2723818300
_cell_length_c         9.3743361506
_cell_angle_alpha        90.0006
_cell_angle_beta        80.5668
_cell_angle_gamma        89.9998
_cell_volume          1416.736599
_space_group_crystal_system monoclinic
_space_group_IT_number 14
_space_group_name_H-M_alt 'P2_1/c'
_space_group_name_Hall '-P 2ybc'
loop_
_symmetry_equiv_pos_site_id
_symmetry_equiv_pos_as_xyz
 1 'x,y,z'
 2 '-x,-y,-z'
 3 '-1/2-x,-1/2+y,-1/2-z'
 4 '-1/2+x,-1/2-y,-1/2+z'
loop_
_atom_site_label
_atom_site_type_symbol
_atom_site_fract_x
_atom_site_fract_y
_atom_site_fract_z
H1    H     0.74042643032267 0.91207553972817 0.24593392970460 
H2    H     0.67589375051543 0.89074102012993 0.50764212962254 
H3    H     0.63338961986290 0.01810890974578 0.67286063029963 
H4    H     0.66941339951068 0.16912674004709 0.57310375018973 
H5    H     0.75717017947677 0.26575873995788 0.37815419030551 
H6    H     0.88498930014062 0.28417351977618 0.13068260968155 
H7    H     0.98476329980073 0.22704612005399 0.90369015992924 
H8    H     0.54458880960590 0.98126127992493 0.15831445956531 
H9    H     0.02824844953962 0.10344445002313 0.72916293005555 
H10   H     0.99314749021404 0.95708512981764 0.66080325977661 
H11   H     0.85801207018437 0.82052639021130 0.68680202002434 
H12   H     0.38045303041634 0.86443874008306 0.14221320004526 
H13   H     0.64956271984151 0.74830791981590 0.78875474968208 
H14   H     0.43312158975237 0.74475680028513 0.95930168010619 
C1    C     0.72191072025134 0.96889725967736 0.31584584988804 
C2    C     0.74043000042255 0.05367273975648 0.25390710051249 
C3    C     0.79040156032069 0.06854976996358 0.10097571996304 
C4    C     0.79229639979174 0.00425958003714 0.98692605976843 
C5    C     0.68558805998606 0.95669084976439 0.46317114022235 
C6    C     0.72561796026315 0.12637519012317 0.35199380991683 
C7    C     0.85303896001668 0.15115278992314 0.06387668991885 
C8    C     0.69701096022293 0.93226181016164 0.98707698948000 
C9    C     0.88794548982531 0.01587422985183 0.85783489967160 
C10   C     0.66234052000731 0.02884205991843 0.55731013997706 
C11   C     0.68163760033648 0.11231518015457 0.50182672036410 
C12   C     0.76902743966610 0.21149169967347 0.30186020022344 
C13   C     0.83761692993982 0.22180027000095 0.16482763994314 
C14   C     0.72204823033877 0.86636540982238 0.87697511020564 
C15   C     0.93575134989237 0.16379754984905 0.92719003007557 
C16   C     0.57076734004910 0.92887028987491 0.08062880997857 
C17   C     0.95884334023935 0.09627029989196 0.83064189990856 
C18   C     0.91220085957437 0.94783671010344 0.75227419957532 
C19   C     0.83689770035621 0.87316366975396 0.76560979049225 
C20   C     0.47799973958586 0.86297713991253 0.07135749998094 
C21   C     0.62719655983576 0.79815181973338 0.87230780030182 
C22   C     0.50680521034605 0.79608525992149 0.96752291962662 
