data_stdin
_audit_creation_method 'critic2'
_audit_creation_date 2023-8-11
_chemical_formula_sum 'C22 H14'
_cell_formula_units_Z 8
_cell_length_a        17.5690808300
_cell_length_b         8.1464829721
_cell_length_c        20.4404074703
_cell_angle_alpha        89.9987
_cell_angle_beta        80.4694
_cell_angle_gamma        89.9994
_cell_volume          2885.177456
_space_group_crystal_system monoclinic
_space_group_IT_number 15
_space_group_name_H-M_alt 'C2/c'
_space_group_name_Hall '-C 2yc'
loop_
_symmetry_equiv_pos_site_id
_symmetry_equiv_pos_as_xyz
 1 'x,y,z'
 2 '-x,-y,-z'
 3 '-x,y,-1/2-z'
 4 'x,-y,-1/2+z'
 5 '-1/2+x,-1/2+y,z'
 6 '-1/2-x,-1/2-y,-z'
 7 '-1/2-x,-1/2+y,-1/2-z'
 8 '-1/2+x,-1/2-y,-1/2+z'
loop_
_atom_site_label
_atom_site_type_symbol
_atom_site_fract_x
_atom_site_fract_y
_atom_site_fract_z
H1    H     0.18554919997276 0.38728826972062 0.16706815983762 
H2    H     0.05791112025276 0.50349247989743 0.20280872990329 
H3    H     0.94012001999983 0.36627718946189 0.17417571014811 
H4    H     0.95575496989053 0.11995224032636 0.10108238009726 
H5    H     0.03727206972165 0.93406595056666 0.02868429002718 
H6    H     0.16753293979345 0.86237844060461 0.96870226010818 
H7    H     0.30364087019866 0.90754737038505 0.94646886022525 
H8    H     0.18418203990267 0.10644347014774 0.22602503996341 
H9    H     0.42206355028430 0.03585912939953 0.97498844976651 
H10   H     0.48645622987789 0.18270033976452 0.05005033019770 
H11   H     0.48916084983432 0.31034952055633 0.15959086000061 
H12   H     0.19749114015344 0.17042467055141 0.34016289976543 
H13   H     0.42778568998440 0.34963686953139 0.27401346994238 
H14   H     0.31863240983849 0.30127707946250 0.36541325017988 
C1    C     0.13578013997104 0.32423318055797 0.15383109977845 
C2    C     0.14669698011287 0.18063387974014 0.11419854024428 
C3    C     0.22252316021600 0.11417503984528 0.08813003004850 
C4    C     0.29278287971497 0.15074443957359 0.11331352012887 
C5    C     0.06328642994667 0.39035803003246 0.17409758978329 
C6    C     0.07989551996452 0.11211713011266 0.09279610993454 
C7    C     0.22830252011717 0.01361240013821 0.03033591983968 
C8    C     0.29741599012143 0.19412703022075 0.18165801018996 
C9    C     0.36409168987851 0.13132037053388 0.06915670008392 
C10   C     0.99709211997301 0.31464773993122 0.15707326005589 
C11   C     0.00572990987964 0.17766296948169 0.11681780005470 
C12   C     0.08876914989741 0.98772770009520 0.04299103017124 
C13   C     0.16045794982659 0.94754256973970 0.01037342980926 
C14   C     0.36878878000764 0.25489403046380 0.19741718013150 
C15   C     0.30135767008864 0.98009870007667 0.99145249989621 
C16   C     0.23710203003281 0.16330554972566 0.23547604015150 
C17   C     0.36684357977651 0.04766692029686 0.00786873021166 
C18   C     0.43406128993883 0.19259269980237 0.08667779008098 
C19   C     0.43575962989937 0.26061321004573 0.14736386990845 
C20   C     0.24481056012372 0.19883811016722 0.30020538009233 
C21   C     0.37397169001167 0.29708444057521 0.26374133998713 
C22   C     0.31323742982000 0.26970233958807 0.31467964978890 
