data_stdin
_audit_creation_method 'critic2'
_audit_creation_date 2023-8-11
_chemical_formula_sum 'C22 H14'
_cell_formula_units_Z 4
_cell_length_a        14.8399141883
_cell_length_b         5.4448555544
_cell_length_c        18.0590394692
_cell_angle_alpha        89.9975
_cell_angle_beta        92.0110
_cell_angle_gamma        90.0015
_cell_volume          1458.293136
_space_group_crystal_system monoclinic
_space_group_IT_number 13
_space_group_name_H-M_alt 'P2/c'
_space_group_name_Hall '-P 2yc'
loop_
_symmetry_equiv_pos_site_id
_symmetry_equiv_pos_as_xyz
 1 'x,y,z'
 2 '-x,-y,-z'
 3 '-x,y,-1/2-z'
 4 'x,-y,-1/2+z'
loop_
_atom_site_label
_atom_site_type_symbol
_atom_site_fract_x
_atom_site_fract_y
_atom_site_fract_z
H1    H     0.63296670980320 0.00781626929504 0.94128930024246 
H2    H     0.46967493006831 0.94380057915568 0.94012223995530 
H3    H     0.40147114004991 0.56544128935593 0.88540431987921 
H4    H     0.49998062019474 0.26146022075787 0.82376216979067 
H5    H     0.64551971971153 0.13874765063666 0.78076834007480 
H6    H     0.80443921025145 0.24646865937181 0.75723174005988 
H7    H     0.92864536987234 0.52616080998583 0.76842205020997 
H8    H     0.69884255966856 0.65734302963572 0.02694291982869 
H9    H     0.00168249033913 0.89895101922861 0.82414364005928 
H10   H     0.00078127005363 0.23403306053624 0.91063685003366 
H11   H     0.93761852032342 0.44035481952741 0.02027912977063 
H12   H     0.66385350026548 0.80364431037831 0.15080960998235 
H13   H     0.84284916990999 0.41740188979080 0.12653538980228 
H14   H     0.73109045004412 0.19510757076477 0.20043937018797 
C1    C     0.60518080002375 0.83931485965601 0.91786667007948 
C2    C     0.66384150001171 0.66498191078849 0.88666868978795 
C3    C     0.76093007983457 0.69941197960198 0.88432184022449 
C4    C     0.81242731004398 0.87329039073115 0.92890953016446 
C5    C     0.51291463967673 0.80399402089061 0.91701761002591 
C6    C     0.62309364988166 0.45920665984692 0.84914464986813 
C7    C     0.80729861998546 0.56277395990053 0.83024212996231 
C8    C     0.78837084005994 0.95796130081228 0.00191300004831 
C9    C     0.89584057998881 0.95873972919397 0.90188486993446 
C10   C     0.47417709000979 0.59108694032046 0.88513586972838 
C11   C     0.52869110972617 0.42305572993582 0.85119749976415 
C12   C     0.67695695010469 0.30043948041928 0.80609550989649 
C13   C     0.76476158971045 0.35791601950799 0.79416359024626 
C14   C     0.83325288982124 0.16772999030322 0.03359041973409 
C15   C     0.89579276026775 0.63250640057179 0.81090022002493 
C16   C     0.72860977970917 0.82788693979797 0.04717677997471 
C17   C     0.93625296999993 0.83545483911077 0.84202837991012 
C18   C     0.93964935978483 0.16622453957702 0.93537788003462 
C19   C     0.90610298981444 0.27724407060573 0.99624360985072 
C20   C     0.70891170997955 0.91039386924543 0.11715201998305 
C21   C     0.80961781010085 0.25324347959699 0.10444718005223 
C22   C     0.74778009028679 0.12848304943480 0.14571362001776 
