data_stdin
_audit_creation_method 'critic2'
_audit_creation_date 2023-8-11
_chemical_formula_sum 'C22 H14'
_cell_formula_units_Z 4
_cell_length_a         9.6801589204
_cell_length_b         5.9108846506
_cell_length_c        25.0699167132
_cell_angle_alpha        90.0003
_cell_angle_beta        76.6490
_cell_angle_gamma        89.9992
_cell_volume          1395.690070
_space_group_crystal_system monoclinic
_space_group_IT_number 14
_space_group_name_H-M_alt 'P2_1/c'
_space_group_name_Hall '-P 2ybc'
loop_
_symmetry_equiv_pos_site_id
_symmetry_equiv_pos_as_xyz
 1 'x,y,z'
 2 '-x,-y,-z'
 3 '-x,-1/2+y,-1/2-z'
 4 'x,-1/2-y,-1/2+z'
loop_
_atom_site_label
_atom_site_type_symbol
_atom_site_fract_x
_atom_site_fract_y
_atom_site_fract_z
H1    H     0.50579236175462 0.67578565106682 0.61922437925372 
H2    H     0.26641884404745 0.84117387849623 0.63563790880251 
H3    H     0.21740144471108 0.21906690762018 0.68041761993866 
H4    H     0.40732293365043 0.41527635390807 0.71426987936610 
H5    H     0.64322173075734 0.41568620478868 0.73311334665728 
H6    H     0.86240770569485 0.20469753628696 0.73552977258029 
H7    H     0.01493942263702 0.88209598277863 0.71178472205442 
H8    H     0.65767582416616 0.97011855372512 0.54980640548255 
H9    H     0.07716373449133 0.52006033039333 0.66072976576095 
H10   H     0.03673384392424 0.24554221362768 0.59505405583933 
H11   H     0.91889639157229 0.12869973558789 0.52181858726325 
H12   H     0.58885464913608 0.89086082977016 0.46337795770879 
H13   H     0.77675769577139 0.22936880541050 0.45739259758525 
H14   H     0.63760885837402 0.51558484658554 0.41858253045430 
C1    C     0.48623220652549 0.84121998218308 0.63827148598009 
C2    C     0.59940305398039 0.95477415846341 0.65398912164544 
C3    C     0.74146263882532 0.86014380441121 0.64535121209235 
C4    C     0.79748347218826 0.68438811373125 0.60637042905989 
C5    C     0.35161589738969 0.93392022253433 0.64763074255333 
C6    C     0.56666106119221 0.16065345767447 0.68438024972366 
C7    C     0.82769585427518 0.93997594016552 0.68035767522443 
C8    C     0.75145745106910 0.64127170500097 0.55602719174013 
C9    C     0.91215571619114 0.55129806923720 0.61579176674106 
C10   C     0.32352983837098 0.14645713262200 0.67333028817613 
C11   C     0.42935915576671 0.25670622528840 0.69182425066740 
C12   C     0.66808122927327 0.25705197501509 0.71094436642997 
C13   C     0.78977247681255 0.14162992409470 0.71164062620247 
C14   C     0.79275804713498 0.43507900407720 0.52676418742158 
C15   C     0.95177431004822 0.81837570494680 0.68420583619968 
C16   C     0.68013598792150 0.80481149092636 0.53089806690219 
C17   C     0.98724927543128 0.62156041260592 0.65546643313646 
C18   C     0.95323527775842 0.34918257096404 0.58502748359145 
C19   C     0.88980699432165 0.28616364631054 0.54411031613486 
C20   C     0.64161718560508 0.76076461395038 0.48214602689512 
C21   C     0.74650559232127 0.38979487940873 0.47821558524002 
C22   C     0.67107953068301 0.54893024431944 0.45636383252387 
