data_stdin
_audit_creation_method 'critic2'
_audit_creation_date 2023-8-11
_chemical_formula_sum 'C22 H14'
_cell_formula_units_Z 4
_cell_length_a         8.8131294647
_cell_length_b        11.3580609700
_cell_length_c        15.0913349669
_cell_angle_alpha        90.0000
_cell_angle_beta        75.2252
_cell_angle_gamma        90.0000
_cell_volume          1460.695218
_space_group_crystal_system monoclinic
_space_group_IT_number 14
_space_group_name_H-M_alt 'P2_1/c'
_space_group_name_Hall '-P 2ybc'
loop_
_symmetry_equiv_pos_site_id
_symmetry_equiv_pos_as_xyz
 1 'x,y,z'
 2 '-x,-y,-z'
 3 '-x,-1/2+y,-1/2-z'
 4 'x,-1/2-y,-1/2+z'
loop_
_atom_site_label
_atom_site_type_symbol
_atom_site_fract_x
_atom_site_fract_y
_atom_site_fract_z
H1    H     0.14951756042803 0.46316145035860 0.95279838006419 
H2    H     0.97069470981891 0.58774123968643 0.89349641026603 
H3    H     0.05654220014839 0.67668788023360 0.73825109002490 
H4    H     0.33209134988450 0.64833166041028 0.64624465971596 
H5    H     0.59593070033329 0.58140940032910 0.63317420030591 
H6    H     0.79249217043956 0.50128997991837 0.70897332995376 
H7    H     0.85996051025846 0.41541272967272 0.83749635976902 
H8    H     0.20287796010055 0.27856923984644 0.85348576968122 
H9    H     0.78296291029390 0.33131428017274 0.99465376987232 
H10   H     0.58832682034699 0.25719422003522 0.12293098017706 
H11   H     0.32155663982839 0.17925877020392 0.19000261984377 
H12   H     0.96218136013886 0.16268720004057 0.90931602033786 
H13   H     0.07240146014842 0.11290065957091 0.16822942986590 
H14   H     0.88753996995280 0.08728902010979 0.06911024000825 
C1    C     0.18945939980545 0.49994220027481 0.88447486013937 
C2    C     0.34598576030948 0.47893800039293 0.83339491007209 
C3    C     0.45870640020805 0.41276741999896 0.86922503029473 
C4    C     0.41982839968279 0.33708365018955 0.94903650995894 
C5    C     0.08822932980460 0.56998261994274 0.85117526980546 
C6    C     0.39750238989345 0.53833654990763 0.74711654001930 
C7    C     0.62057295002948 0.43286589019635 0.82673313972188 
C8    C     0.27434329980596 0.27142123997299 0.98050538991525 
C9    C     0.53689909951061 0.31830076020484 0.99758027015629 
C10   C     0.13732991041697 0.62142473023381 0.76355916979485 
C11   C     0.28982278047023 0.60552837967588 0.71254551007756 
C12   C     0.55953422967730 0.53772405966651 0.69942067026886 
C13   C     0.66732520949801 0.49196754014275 0.74058747008385 
C14   C     0.23897222952817 0.21639851959793 0.06896503011168 
C15   C     0.73732247065812 0.39806933027296 0.87130960973052 
C16   C     0.17217118990840 0.24704077008020 0.92376527978388 
C17   C     0.69542255995314 0.35036288003736 0.95724792011235 
C18   C     0.49785547024351 0.26330270977222 0.08560099022205 
C19   C     0.35109782048513 0.21965549967999 0.12238440015021 
C20   C     0.03696498040885 0.18146315023228 0.95490399023980 
C21   C     0.09715298001258 0.15255230998687 0.10023518993370 
C22   C     0.99586937055520 0.13681681016495 0.04499895991292 
