data_stdin
_audit_creation_method 'critic2'
_audit_creation_date 2023-8-11
_chemical_formula_sum 'C22 H14'
_cell_formula_units_Z 4
_cell_length_a        18.7229634705
_cell_length_b        12.6792579034
_cell_length_c         6.0764299438
_cell_angle_alpha        90.0565
_cell_angle_beta        90.0013
_cell_angle_gamma        89.9989
_cell_volume          1442.502949
_space_group_crystal_system monoclinic
_space_group_IT_number 4
_space_group_name_H-M_alt 'P2_1'
_space_group_name_Hall 'P 2yb'
loop_
_symmetry_equiv_pos_site_id
_symmetry_equiv_pos_as_xyz
 1 'x,y,z'
 2 '-1/2+x,-1/2-y,-z'
loop_
_atom_site_label
_atom_site_type_symbol
_atom_site_fract_x
_atom_site_fract_y
_atom_site_fract_z
H1    H     0.74533206463182 0.26018724830676 0.33775662144679 
H2    H     0.25469077735139 0.75954577590330 0.16188655618580 
H3    H     0.61838646377902 0.22729854398679 0.28327474722029 
H4    H     0.38163617191628 0.72677293384634 0.21637892447940 
H5    H     0.56106521770852 0.26102980194627 0.91574595254431 
H6    H     0.43892101606204 0.76066837465843 0.58405201167293 
H7    H     0.63191119526122 0.34825309185952 0.62365303927962 
H8    H     0.36799848186139 0.84783799673261 0.87640919926078 
H9    H     0.73977290108894 0.43499370689643 0.50059697544708 
H10   H     0.26008551977185 0.93439835512092 0.99976365596249 
H11   H     0.85939841303941 0.50590378855195 0.58597833642041 
H12   H     0.14048353528375 0.00535527469658 0.91439838258440 
H13   H     0.95665285005535 0.53041592685859 0.83225389619360 
H14   H     0.04335409402229 0.03002177822101 0.66788418892941 
H15   H     0.81057382375274 0.12747127942299 0.07994687098363 
H16   H     0.18942276082633 0.62692867652055 0.41898178578048 
H17   H     0.02021168573059 0.48959529858459 0.18051474997188 
H18   H     0.97988643372463 0.98924308927696 0.31927129140786 
H19   H     0.03153282018534 0.38890312033290 0.51061107007023 
H20   H     0.96857650489252 0.88846715624910 0.98890458713858 
H21   H     0.99161573298242 0.24483729751382 0.75937267776450 
H22   H     0.00843957531499 0.74425457553195 0.73983325773214 
H23   H     0.79098740537911 0.96516093642899 0.29270250859290 
H24   H     0.20913778377015 0.46468746764658 0.20548098988989 
H25   H     0.91974493468708 0.08837288638166 0.82037032968625 
H26   H     0.08034036324337 0.58776438218444 0.67828857588921 
H27   H     0.83883239662521 0.94893394626965 0.67400865083023 
H28   H     0.16136061983344 0.44849138437802 0.82399412047052 
C1    C     0.72205297290339 0.27632124802875 0.17780589084194 
C2    C     0.27794534371453 0.77573939151568 0.32191298693343 
C3    C     0.76547197108795 0.31881364633419 0.00860984685137 
C4    C     0.23449314400203 0.81824474664233 0.49119563086472 
C5    C     0.84076663758313 0.34408014029714 0.03831282267556 
C6    C     0.15920588183453 0.84352457434278 0.46145808876390 
C7    C     0.88578153725335 0.30399494137778 0.21245629264621 
C8    C     0.11421725703973 0.80344735509055 0.28707579211687 
C9    C     0.64997923273377 0.25760119456688 0.14680791206466 
C10   C     0.35002210065240 0.75707736223443 0.35292149597135 
C11   C     0.73025128385597 0.34971299125791 0.80944498918548 
C12   C     0.26968014234650 0.84917267189662 0.69052509862441 
C13   C     0.87033734624437 0.42092050424819 0.89347239523099 
C14   C     0.12962254161118 0.92039861027890 0.60651310788023 
C15   C     0.87437436562310 0.20531530511206 0.32926515264969 
C16   C     0.12563437850998 0.70476421584602 0.16991833592256 
C17   C     0.94781403367081 0.36314812357683 0.27094522306356 
C18   C     0.05222480972265 0.86265924278059 0.22864966766602 
C19   C     0.61731521092022 0.27871811357073 0.94259812086464 
C20   C     0.38266257679421 0.77828086494839 0.55722284890702 
C21   C     0.65708243567722 0.32526583240655 0.77786378381696 
C22   C     0.34285624962715 0.82479702272329 0.72209311977767 
C23   C     0.76709861981129 0.41257633168685 0.65144967772168 
C24   C     0.23279678944952 0.91201190049230 0.84873906804375 
C25   C     0.83339728397267 0.45103827784132 0.69796990611171 
C26   C     0.16651546406424 0.95049533724992 0.80223214025682 
C27   C     0.91045867081868 0.18802221191360 0.53389404199151 
C28   C     0.08957003987961 0.68744819858609 0.96517228798562 
C29   C     0.93638824679113 0.47050811591856 0.94434824876998 
C30   C     0.06361352681317 0.97006482943444 0.55563396534804 
C31   C     0.83326868447260 0.12065671585703 0.24395742810368 
C32   C     0.16675769614718 0.62012208844626 0.25490496981040 
C33   C     0.97185099863299 0.44712717362636 0.13476126817601 
C34   C     0.02820022514811 0.94670325025505 0.36503246948712 
C35   C     0.98630876370682 0.33885380597010 0.46733849449603 
C36   C     0.01375532430100 0.83835564035175 0.03212836391782 
C37   C     0.96533971546741 0.25865507798659 0.60220190004723 
C38   C     0.03470257827709 0.75808089930652 0.89707179052388 
C39   C     0.82186774837007 0.02947980714112 0.36411732758294 
C40   C     0.17822777740932 0.52897858878781 0.13433199200609 
C41   C     0.89445375512601 0.09709972418558 0.65976863582888 
C42   C     0.10562212263140 0.59654460619107 0.83893565971128 
C43   C     0.85005562554446 0.01942057766790 0.57830743085205 
C44   C     0.15006491744870 0.51891818247645 0.92008668726756 
