data_stdin
_audit_creation_method 'critic2'
_audit_creation_date 2023-8-11
_chemical_formula_sum 'C22 H14'
_cell_formula_units_Z 2
_cell_length_a         4.2348210722
_cell_length_b        10.4609056123
_cell_length_c        15.8646810120
_cell_angle_alpha        89.9986
_cell_angle_beta        93.1136
_cell_angle_gamma        90.0010
_cell_volume           701.768894
_space_group_crystal_system monoclinic
_space_group_IT_number 4
_space_group_name_H-M_alt 'P2_1'
_space_group_name_Hall 'P 2yb'
loop_
_symmetry_equiv_pos_site_id
_symmetry_equiv_pos_as_xyz
 1 'x,y,z'
 2 '-x,-1/2+y,-z'
loop_
_atom_site_label
_atom_site_type_symbol
_atom_site_fract_x
_atom_site_fract_y
_atom_site_fract_z
H1    H     0.34800187089266 0.00989497021803 0.85452317980028 
H2    H     0.35046616092004 0.01764176012942 0.00832769006695 
H3    H     0.67621379107719 0.86376678970906 0.09627128004316 
H4    H     0.99564107972075 0.69960035973427 0.02553356012090 
H5    H     0.15145474940370 0.59279775978989 0.90088602984036 
H6    H     0.06151846000579 0.55296185976848 0.74701825007196 
H7    H     0.77873591997132 0.59537276954594 0.61638447974805 
H8    H     0.87547282067638 0.07877985953673 0.81515272975602 
H9    H     0.41759998023868 0.73162402986820 0.52651313969266 
H10   H     0.13223204069347 0.92570988991973 0.50275518995439 
H11   H     0.04358214072759 0.15426101012056 0.53644653024217 
H12   H     0.86964015045076 0.31155070002177 0.83013717011091 
H13   H     0.20942146904050 0.34193487955469 0.61543388970212 
H14   H     0.52922703108335 0.44591588985874 0.73275448034015 
C1    C     0.49801805006314 0.94388358958432 0.89106309981065 
C2    C     0.67965387016250 0.85308850971967 0.84832573026363 
C3    C     0.67044796898659 0.84096253965047 0.75684262022191 
C4    C     0.53641065979958 0.93362864020340 0.69703371014188 
C5    C     0.49819512076100 0.94809717979574 0.97809533031265 
C6    C     0.85257961049861 0.76123553020346 0.89952884023127 
C7    C     0.77945627952191 0.72311805028726 0.72389777983524 
C8    C     0.53079442982341 0.07137553012421 0.70946525003791 
C9    C     0.42165598996690 0.88764091960789 0.61651803970442 
C10   C     0.68062761085080 0.86087540992868 0.02775031022474 
C11   C     0.85478996073096 0.76907900984760 0.98864227983642 
C12   C     0.00861429963764 0.65760776988790 0.86101186968898 
C13   C     0.96195918092678 0.63680323994445 0.77643766002448 
C14   C     0.35225840039457 0.15025662997941 0.65030953027883 
C15   C     0.69639077898694 0.68710632014434 0.63916329021134 
C16   C     0.72039318074533 0.13482882026964 0.77287387021793 
C17   C     0.50039108114816 0.76271011972381 0.58940508996272 
C18   C     0.23606053032984 0.96807763036603 0.56059237019786 
C19   C     0.18971453073494 0.09385999004300 0.57861695012083 
C20   C     0.71882119075878 0.26625478031603 0.78112723989579 
C21   C     0.35150211933857 0.28469999025696 0.66065841009586 
C22   C     0.52898036031502 0.34244864959950 0.72545836979232 
