data_stdin
_audit_creation_method 'critic2'
_audit_creation_date 2023-8-11
_chemical_formula_sum 'C22 H14'
_cell_formula_units_Z 4
_cell_length_a        21.2711149803
_cell_length_b         8.6294499701
_cell_length_c         8.1781837669
_cell_angle_alpha        90.0000
_cell_angle_beta        90.0024
_cell_angle_gamma        90.0000
_cell_volume          1501.171239
_space_group_crystal_system orthorhombic
_space_group_IT_number 29
_space_group_name_H-M_alt 'Pca2_1'
_space_group_name_Hall 'P 2c -2ac'
loop_
_symmetry_equiv_pos_site_id
_symmetry_equiv_pos_as_xyz
 1 'x,y,z'
 2 '-x,-y,-1/2+z'
 3 '-1/2-x,y,-1/2+z'
 4 '-1/2+x,-y,z'
loop_
_atom_site_label
_atom_site_type_symbol
_atom_site_fract_x
_atom_site_fract_y
_atom_site_fract_z
H1    H     0.45545076015951 0.12828077987493 0.00309134030962 
H2    H     0.54418855009973 0.30786349026513 0.00549464989282 
H3    H     0.64668125991242 0.23285048963177 0.87568932024637 
H4    H     0.66050700001661 0.96640592965753 0.77100117056481 
H5    H     0.62224737023111 0.70260415003771 0.73592406946490 
H6    H     0.54061276982446 0.50420504053972 0.79309964965798 
H7    H     0.44047802011385 0.43273303962634 0.91227139985354 
H8    H     0.42954560992116 0.08427474945158 0.68875289058849 
H9    H     0.33727521006219 0.50605309987657 0.02959405998687 
H10   H     0.25912949989406 0.70108982045844 0.09491781986390 
H11   H     0.21814516979511 0.96848347016832 0.06939136940955 
H12   H     0.37799814018492 0.32717409978786 0.61432037056614 
H13   H     0.22404116988240 0.22064397035110 0.93835245027636 
H14   H     0.27628513001646 0.40390858971304 0.74611547042648 
C1    C     0.49945279984630 0.09278874018930 0.94773121948691 
C2    C     0.50486397014796 0.94155048027859 0.88219065957328 
C3    C     0.45378450008174 0.82968216970654 0.88568945026197 
C4    C     0.38845375018214 0.86761762948366 0.91151156943520 
C5    C     0.54961208001715 0.19473604025053 0.94830360944950 
C6    C     0.56564928005503 0.89413964972042 0.82607061941140 
C7    C     0.47036243005319 0.67015868978432 0.87316695996678 
C8    C     0.35922452999174 0.01346897966268 0.86563725940328 
C9    C     0.34838652001578 0.75086031033837 0.97724104984414 
C10   C     0.60757658982385 0.15153934025036 0.87911978969448 
C11   C     0.61529904002379 0.00292450950046 0.81999011978629 
C12   C     0.57644353993451 0.73554073052550 0.78470101995149 
C13   C     0.53130625985056 0.62664363942516 0.81500618020375 
C14   C     0.29802667011006 0.05017974024269 0.92729383968396 
C15   C     0.42665657983526 0.55393823962681 0.92071693947259 
C16   C     0.38573218014883 0.11548196026761 0.74846712973294 
C17   C     0.36919070977907 0.59442971942796 0.98303443969339 
C18   C     0.28708322011412 0.79074265983452 0.03524361964553 
C19   C     0.26401666016260 0.93776541948035 0.02004504962936 
C20   C     0.35628850007685 0.25239382954972 0.70556483018275 
C21   C     0.26980088994741 0.19373436970950 0.88589051956641 
C22   C     0.29859633985716 0.29435545005892 0.77810089964229 
