data_stdin
_audit_creation_method 'critic2'
_audit_creation_date 2023-8-11
_chemical_formula_sum 'C22 H14'
_cell_formula_units_Z 4
_cell_length_a        28.4177000863
_cell_length_b        10.3499896700
_cell_length_c         4.9575376524
_cell_angle_alpha        89.9984
_cell_angle_beta        89.9996
_cell_angle_gamma        89.9989
_cell_volume          1458.125362
_space_group_crystal_system orthorhombic
_space_group_IT_number 33
_space_group_name_H-M_alt 'Pna2_1'
_space_group_name_Hall 'P 2c -2n'
loop_
_symmetry_equiv_pos_site_id
_symmetry_equiv_pos_as_xyz
 1 'x,y,z'
 2 '-x,-y,-1/2+z'
 3 '-1/2-x,-1/2+y,-1/2+z'
 4 '-1/2+x,-1/2-y,z'
loop_
_atom_site_label
_atom_site_type_symbol
_atom_site_fract_x
_atom_site_fract_y
_atom_site_fract_z
H1    H     0.10918867012197 0.42976254996359 0.98634483090028 
H2    H     0.12562706984145 0.65886349026965 0.91099485073392 
H3    H     0.17651457006606 0.72863716984089 0.52516107946166 
H4    H     0.21498170984155 0.56268533042375 0.23900464926639 
H5    H     0.23108978007322 0.33558037980002 0.13107374029278 
H6    H     0.22950396999218 0.10725054984792 0.27634738016145 
H7    H     0.20534102002752 0.94414766976439 0.59713680040546 
H8    H     0.06223365007454 0.35677571985630 0.54847920089953 
H9    H     0.15588534016031 0.87463888036977 0.98555924922741 
H10   H     0.09050278003999 0.91259242046465 0.28982192974583 
H11   H     0.01876391008228 0.03479149007039 0.41043978975354 
H12   H     0.98241252002862 0.44062209014141 0.59848054982415 
H13   H     0.95973887010582 0.19125428043952 0.28241607965339 
H14   H     0.93074367002388 0.36376292008529 0.97440210078942 
C1    C     0.13112061015829 0.45789586004834 0.81688015906403 
C2    C     0.15038349995086 0.36073033983498 0.64839593025093 
C3    C     0.14246119991287 0.22384138036874 0.69430850957476 
C4    C     0.10537826002028 0.17100552985388 0.85983317989825 
C5    C     0.14069205005427 0.58726036017512 0.77511194916717 
C6    C     0.18295150993659 0.40053678975697 0.44406240033131 
C7    C     0.17586415003218 0.13657226010307 0.58244341040440 
C8    C     0.05916455990714 0.22883393030213 0.89419920950237 
C9    C     0.11307958986766 0.04811982045020 0.98135259928324 
C10   C     0.16995048003130 0.62635885018645 0.56042474069532 
C11   C     0.19103009001925 0.53396923001656 0.39968703073381 
C12   C     0.20875079017365 0.30517805017253 0.29767609019242 
C13   C     0.20718283001853 0.17869985987742 0.37493500079179 
C14   C     0.02811890996084 0.17821227031999 0.09552166977956 
C15   C     0.17879726013299 0.00808139035441 0.68214578087317 
C16   C     0.04080870996074 0.32327431029608 0.71578206070166 
C17   C     0.15092413001698 0.96896868042747 0.89201352002470 
C18   C     0.08192548004809 0.00237354996617 0.18617811914368 
C19   C     0.04205058013835 0.06884941003662 0.25151415037849 
C20   C     0.99546928002098 0.36984317999243 0.74262929006191 
C21   C     0.98230869001004 0.23039465012229 0.12453762910565 
C22   C     0.96613055006054 0.32506583958487 0.95172604918072 
