data_stdin
_audit_creation_method 'critic2'
_audit_creation_date 2023-8-11
_chemical_formula_sum 'C22 H14'
_cell_formula_units_Z 8
_cell_length_a        40.9532190270
_cell_length_b         8.9054327513
_cell_length_c         7.7494718136
_cell_angle_alpha        90.0000
_cell_angle_beta        89.0135
_cell_angle_gamma        89.9996
_cell_volume          2825.861000
_space_group_crystal_system monoclinic
_space_group_IT_number 15
_space_group_name_H-M_alt 'C2/c'
_space_group_name_Hall '-C 2yc'
loop_
_symmetry_equiv_pos_site_id
_symmetry_equiv_pos_as_xyz
 1 'x,y,z'
 2 '-x,-y,-z'
 3 '-x,y,-1/2-z'
 4 'x,-y,-1/2+z'
 5 '-1/2+x,-1/2+y,z'
 6 '-1/2-x,-1/2-y,-z'
 7 '-1/2-x,-1/2+y,-1/2-z'
 8 '-1/2+x,-1/2-y,-1/2+z'
loop_
_atom_site_label
_atom_site_type_symbol
_atom_site_fract_x
_atom_site_fract_y
_atom_site_fract_z
H1    H     0.37902560768781 0.12908873812526 0.25182315045668 
H2    H     0.41618261198730 0.91811711454600 0.19524999447884 
H3    H     0.47275867849705 0.92196886524062 0.30466648398706 
H4    H     0.49297479398097 0.14864819866126 0.45643411009887 
H5    H     0.48447714748034 0.40016998021959 0.57012968754307 
H6    H     0.45133935195263 0.63382163961995 0.57008154079921 
H7    H     0.40490723843891 0.76992832359680 0.47595864525455 
H8    H     0.36771744599471 0.12772264355336 0.56935554508008 
H9    H     0.34889213494267 0.77701965143615 0.35725287478423 
H10   H     0.30094572134224 0.65354747234406 0.26521860970701 
H11   H     0.26588226813220 0.42541795650471 0.25190318896777 
H12   H     0.32849996560062 0.92302129432191 0.61630144430176 
H13   H     0.25561850332133 0.17053453390207 0.34325644596861 
H14   H     0.27271337564849 0.93770500195606 0.49436108049238 
C1    C     0.40344642120040 0.13219421770488 0.30365807787943 
C2    C     0.41332686151544 0.26022415555159 0.39822654537310 
C3    C     0.39241967907550 0.39036718976206 0.42582825413922 
C4    C     0.35751934696879 0.39425247428438 0.39908679788271 
C5    C     0.42433891496899 0.01342953477873 0.27094997988264 
C6    C     0.44678560741427 0.26584307968786 0.44975834747769 
C7    C     0.40826370251146 0.52771825351602 0.46757854667774 
C8    C     0.33539284602511 0.26762171068115 0.42110145718796 
C9    C     0.34303459595712 0.53561755170748 0.36117979231111 
C10   C     0.45656068807004 0.01639384819339 0.33105094993229 
C11   C     0.46759776810316 0.14158036707269 0.41715949113854 
C12   C     0.45949788656908 0.39989463366246 0.52382942779713 
C13   C     0.44122988499520 0.52795920193833 0.52480983975070 
C14   C     0.30233859382500 0.28025771876687 0.36490306362028 
C15   C     0.39181746582675 0.66685621386250 0.44732039326794 
C16   C     0.34362560074242 0.13619853059505 0.51415462476249 
C17   C     0.36089508963074 0.67073601288137 0.38411216999326 
C18   C     0.31011094104153 0.54397086155536 0.30415465532436 
C19   C     0.29085571335093 0.41923639820591 0.29741681259862 
C20   C     0.32158729786529 0.02063347623631 0.54080146509725 
C21   C     0.28051298059134 0.15817111366541 0.38847341184896 
C22   C     0.28988515909673 0.02962853238111 0.47386032993621 
