data_stdin
_audit_creation_method 'critic2'
_audit_creation_date 2023-8-11
_chemical_formula_sum 'C22 H14'
_cell_formula_units_Z 4
_cell_length_a        14.0184844519
_cell_length_b        20.0853518902
_cell_length_c         5.3200352933
_cell_angle_alpha        89.9989
_cell_angle_beta        90.0016
_cell_angle_gamma        90.0011
_cell_volume          1497.942084
_space_group_crystal_system orthorhombic
_space_group_IT_number 33
_space_group_name_H-M_alt 'Pna2_1'
_space_group_name_Hall 'P 2c -2n'
loop_
_symmetry_equiv_pos_site_id
_symmetry_equiv_pos_as_xyz
 1 'x,y,z'
 2 '-x,-y,-1/2+z'
 3 '-1/2-x,-1/2+y,-1/2+z'
 4 '-1/2+x,-1/2-y,z'
loop_
_atom_site_label
_atom_site_type_symbol
_atom_site_fract_x
_atom_site_fract_y
_atom_site_fract_z
H1    H     0.74103334991078 0.00538162988509 0.03752621036953 
H2    H     0.73827434982020 0.88627978020979 0.12899900012439 
H3    H     0.81180388011128 0.84190770977007 0.52433686983027 
H4    H     0.90022061019056 0.91956891984661 0.80555912073237 
H5    H     0.96611735032269 0.02828271019043 0.89236011035031 
H6    H     0.00588859034818 0.14094274006954 0.73836410013561 
H7    H     0.99381627019324 0.22654133987550 0.42161039933434 
H8    H     0.64204579016437 0.06213689999694 0.40801025085382 
H9    H     0.91677472030380 0.27374478012515 0.04092511907820 
H10   H     0.79452357990655 0.26897822997709 0.72135554064770 
H11   H     0.64075814029361 0.22517777977756 0.56290870992734 
H12   H     0.47591185021562 0.03723238011923 0.30271822047985 
H13   H     0.49711208020234 0.15911269984195 0.63932337074781 
H14   H     0.40317641021590 0.08199558997210 0.90860418968193 
C1    C     0.77283367020392 0.98761280994165 0.21114052066896 
C2    C     0.81848066977786 0.03355945007265 0.37361949076020 
C3    C     0.82674588983144 0.10414626007838 0.31669943985709 
C4    C     0.76762881005448 0.13985157007795 0.14027023011927 
C5    C     0.77135194024285 0.92015460005458 0.26328333073591 
C6    C     0.86836566979200 0.00698888986718 0.58585871006058 
C7    C     0.90362107993930 0.13909969987042 0.43176860971901 
C8    C     0.66944334016267 0.12290603023170 0.07947404055956 
C9    C     0.80560119029257 0.19853149000785 0.02809950063575 
C10   C     0.81409414986468 0.89504105000017 0.48374313078788 
C11   C     0.86239793988975 0.93808619008420 0.64099579926009 
C12   C     0.93092946035403 0.04865737009049 0.72731291068030 
C13   C     0.95206382003518 0.11107868011753 0.64293632039109 
C14   C     0.62425583018672 0.15388066991236 0.86800226052143 
C15   C     0.93320906984852 0.20167800002380 0.33417053979277 
C16   C     0.61209785995011 0.08195074016004 0.23525477959506 
C17   C     0.88974194983793 0.22826462016429 0.12671871005128 
C18   C     0.75896557017215 0.22787281978209 0.81655661088563 
C19   C     0.67374442967842 0.20419807020006 0.73056627090079 
C20   C     0.51800255998408 0.06826892009797 0.17674593989690 
C21   C     0.52898772982599 0.13688137994405 0.80631414064820 
C22   C     0.47657045026884 0.09432844996463 0.95639873053379 
