data_stdin
_audit_creation_method 'critic2'
_audit_creation_date 2023-8-11
_chemical_formula_sum 'C22 H14'
_cell_formula_units_Z 4
_cell_length_a         5.0829030704
_cell_length_b        29.8312825464
_cell_length_c        10.3516976679
_cell_angle_alpha        89.9940
_cell_angle_beta        67.4969
_cell_angle_gamma        90.0070
_cell_volume          1450.109701
_space_group_crystal_system triclinic
_space_group_IT_number 2
_space_group_name_H-M_alt 'P-1'
_space_group_name_Hall '-P 1'
loop_
_symmetry_equiv_pos_site_id
_symmetry_equiv_pos_as_xyz
 1 'x,y,z'
 2 '-x,-y,-z'
loop_
_atom_site_label
_atom_site_type_symbol
_atom_site_fract_x
_atom_site_fract_y
_atom_site_fract_z
H1    H     0.09563140058361 0.82023311009463 0.38067290042553 
H2    H     0.90424089956300 0.32026416000967 0.11937015036580 
H3    H     0.13583432975972 0.73871680984882 0.37332834954132 
H4    H     0.86401173085691 0.23874460013133 0.12671139987091 
H5    H     0.60928316967677 0.70167821004649 0.24825628030819 
H6    H     0.39053052902044 0.20168014005397 0.25175057048838 
H7    H     0.02996318962907 0.74834515990124 0.11875252956232 
H8    H     0.96985671022028 0.24832049015710 0.38122075990484 
H9    H     0.24246365927039 0.82124917006073 0.03072259048361 
H10   H     0.75736302043439 0.32121973005800 0.46923863962911 
H11   H     0.17079349028710 0.90145198009678 0.98847328014599 
H12   H     0.82910788058915 0.40141907991742 0.51150222021998 
H13   H     0.85463420042769 0.96443870996261 0.01487911048197 
H14   H     0.14535780913783 0.46441914986583 0.48510613014797 
H15   H     0.41330211059974 0.85090837989408 0.51773784979205 
H16   H     0.58659356938046 0.35093719014636 0.98226556991286 
H17   H     0.37900163999308 0.00036420002125 0.13198267987795 
H18   H     0.62106342893622 0.50035727995121 0.36801580025736 
H19   H     0.90330806008752 0.99972491989283 0.31204481007682 
H20   H     0.09684823973429 0.49972829007673 0.18797860009800 
H21   H     0.56111853973859 0.97084060993883 0.53968770997743 
H22   H     0.43900958014017 0.47085608002234 0.96036418948634 
H23   H     0.13290602046845 0.83833816994753 0.76696483036944 
H24   H     0.86705626021303 0.33837991014189 0.73305534961245 
H25   H     0.48611740886907 0.92852104986664 0.74983552049640 
H26   H     0.51400677907231 0.42855212988034 0.75021806001718 
H27   H     0.66385025032342 0.87562460990089 0.88508784012654 
H28   H     0.33621541952304 0.37566688997175 0.61496036025057 
C1    C     0.30321376124224 0.80506933996577 0.32681008957408 
C2    C     0.69665279126891 0.30508699993879 0.17321240956298 
C3    C     0.54162899061163 0.83287268001876 0.25689632989377 
C4    C     0.45824086061469 0.33287601990961 0.24311000989804 
C5    C     0.51934943909245 0.88130104986666 0.25076537043407 
C6    C     0.48056469089439 0.38130459011893 0.24924275992498 
C7    C     0.28076910123573 0.90727747993143 0.34125178957155 
C8    C     0.71918873000393 0.40729066999667 0.15876303994213 
C9    C     0.32610011995366 0.75889822001484 0.32252631018491 
C10   C     0.67374595915305 0.25891496011103 0.17749204993831 
C11   C     0.80503928900750 0.81138439015297 0.17551305029480 
C12   C     0.19480666038834 0.31137415997089 0.32447747025771 
C13   C     0.73658045056496 0.90399900006284 0.14000939040424 
C14   C     0.26334917944243 0.40398895012004 0.35999306973749 
C15   C     0.11029207004530 0.89626926006996 0.48590586016816 
C16   C     0.88967563076249 0.39629299983493 0.01411230007037 
C17   C     0.21912664008888 0.94835896011957 0.28884011017070 
C18   C     0.78088855008557 0.44836596000587 0.21117490990469 
C19   C     0.59057929036173 0.73805667983758 0.25029557018087 
C20   C     0.40925174901363 0.23805932997328 0.24970790016688 
C21   C     0.82584082006144 0.76406124998524 0.17800990958544 
C22   C     0.17398754918679 0.26405006010368 0.32197694018064 
C23   C     0.03867102939967 0.83767238009875 0.08599359035534 
C24   C     0.96118471911120 0.33765067986467 0.41398597040718 
C25   C     0.00029468904472 0.88191831997871 0.06436118996123 
C26   C     0.99960381996488 0.38189518015248 0.43562477011456 
C27   C     0.84919118044035 0.91980692989828 0.55655226049315 
C28   C     0.15083541029955 0.41983207989647 0.94348023966208 
C29   C     0.68670560946450 0.94807296990941 0.10186658005162 
C30   C     0.31327816001346 0.44806053012297 0.39813109971568 
C31   C     0.20698479969786 0.86700791002189 0.56637289950498 
C32   C     0.79295109054778 0.36703847999956 0.93364515985152 
C33   C     0.42648199034584 0.96807079015777 0.16725032049890 
C34   C     0.57353796971147 0.46806583997308 0.33275590977918 
C35   C     0.95242234054812 0.97011245009724 0.36021832992893 
C36   C     0.04765588949093 0.47012289984561 0.13980722007542 
C37   C     0.76597438079228 0.95470007001392 0.48599606955015 
C38   C     0.23409729949929 0.45471730990325 0.01404181986925 
C39   C     0.04974834022258 0.86001178012325 0.70693040965760 
C40   C     0.95022818014290 0.36004828003676 0.79309553984396 
C41   C     0.68695015909490 0.91076213989087 0.69943328026942 
C42   C     0.31312009038211 0.41079364010557 0.80060814999314 
C43   C     0.78477074002134 0.88141544989364 0.77416947024493 
C44   C     0.21526655985614 0.38145270996394 0.72587243008056 
