data_stdin
_audit_creation_method 'critic2'
_audit_creation_date 2023-8-11
_chemical_formula_sum 'C22 H14'
_cell_formula_units_Z 4
_cell_length_a        12.3806600348
_cell_length_b         5.9281455912
_cell_length_c        19.7437150645
_cell_angle_alpha        90.0006
_cell_angle_beta        79.0930
_cell_angle_gamma        89.9990
_cell_volume          1422.900696
_space_group_crystal_system monoclinic
_space_group_IT_number 14
_space_group_name_H-M_alt 'P2_1/c'
_space_group_name_Hall '-P 2ybc'
loop_
_symmetry_equiv_pos_site_id
_symmetry_equiv_pos_as_xyz
 1 'x,y,z'
 2 '-x,-y,-z'
 3 '-x,-1/2+y,-1/2-z'
 4 'x,-1/2-y,-1/2+z'
loop_
_atom_site_label
_atom_site_type_symbol
_atom_site_fract_x
_atom_site_fract_y
_atom_site_fract_z
H1    H     0.90260933981650 0.03727206972435 0.91516188974676 
H2    H     0.07267076962719 0.09036223949671 0.95965433989086 
H3    H     0.17532702024936 0.45209378027260 0.94148472008098 
H4    H     0.11138948993488 0.75330796003497 0.86973719979885 
H5    H     0.99170485965489 0.88009292917275 0.79408642981340 
H6    H     0.84866570042577 0.79151455963833 0.72634017984857 
H7    H     0.71874106980992 0.53474843953550 0.69375447013942 
H8    H     0.75994640000847 0.33579957989617 0.98011621011536 
H9    H     0.61395957976840 0.17246003076846 0.70992713019852 
H10   H     0.55533754006344 0.84094899926670 0.77773239014659 
H11   H     0.54238669982978 0.61737041955999 0.88524255980223 
H12   H     0.70792741986735 0.16364936971346 0.09461860021252 
H13   H     0.56335764034708 0.60256360018576 0.00620371013506 
H14   H     0.61506371026110 0.78646286055268 0.10816143006878 
C1    C     0.94548051028030 0.19757664922256 0.90681203010567 
C2    C     0.90376702005872 0.36877788003845 0.86864031015709 
C3    C     0.80649753002740 0.33963309079478 0.83815460993406 
C4    C     0.72426977989009 0.16698385944560 0.85740257019181 
C5    C     0.04165137964054 0.22681805960197 0.93176217004504 
C6    C     0.96892836024056 0.56831996025432 0.85306383975030 
C7    C     0.79636631013130 0.48213399023309 0.78163550990145 
C8    C     0.69610380031172 0.06613393081938 0.92541454014680 
C9    C     0.66144230032918 0.09726478076037 0.80769141017687 
C10   C     0.10061919038081 0.43082581989281 0.92066348978085 
C11   C     0.06469619031861 0.59806535977082 0.88162898993153 
C12   C     0.94256311030604 0.72750926006465 0.80445574022533 
C13   C     0.86264556981889 0.67976351940424 0.76760606018331 
C14   C     0.63263590035224 0.86296135957686 0.93454004002135 
C15   C     0.72251406035507 0.42421832937342 0.73733255015100 
C16   C     0.71955383966917 0.17239968062557 0.98522364011353 
C17   C     0.66328408981729 0.22797732064660 0.74705899994853 
C18   C     0.59645849008827 0.89705368077925 0.81890131013739 
C19   C     0.58795505044542 0.77557587017325 0.87843547980949 
C20   C     0.69031901032230 0.07503123036726 0.04965970019230 
C21   C     0.60834159977037 0.76122159076574 0.00059189996529 
C22   C     0.63715201975725 0.86377887983282 0.05736218008001 
