data_stdin
_audit_creation_method 'critic2'
_audit_creation_date 2023-8-11
_chemical_formula_sum 'C22 H14'
_cell_formula_units_Z 8
_cell_length_a        20.0034553367
_cell_length_b         6.4427464418
_cell_length_c        23.2149049640
_cell_angle_alpha        89.9995
_cell_angle_beta        68.3797
_cell_angle_gamma        89.9991
_cell_volume          2781.380826
_space_group_crystal_system monoclinic
_space_group_IT_number 15
_space_group_name_H-M_alt 'C2/c'
_space_group_name_Hall '-C 2yc'
loop_
_symmetry_equiv_pos_site_id
_symmetry_equiv_pos_as_xyz
 1 'x,y,z'
 2 '-1/2-x,-1/2-y,-z'
 3 '-1/2-x,-1/2+y,-1/2-z'
 4 '-1/2+x,-1/2-y,-1/2+z'
 5 '-1/2+x,-1/2+y,z'
 6 '-x,-y,-z'
 7 '-x,y,-1/2-z'
 8 'x,-y,-1/2+z'
loop_
_atom_site_label
_atom_site_type_symbol
_atom_site_fract_x
_atom_site_fract_y
_atom_site_fract_z
H1    H     0.30311147071448 0.75043959613766 0.02946591483873 
H2    H     0.28405248646933 0.53795236954719 0.94846319869328 
H3    H     0.33125426283405 0.17800766355631 0.92858298694024 
H4    H     0.41289015436597 0.05020247261989 0.97956848052636 
H5    H     0.48754758795989 0.12487028512310 0.04011527472505 
H6    H     0.53022973929307 0.37714041773207 0.09950444861876 
H7    H     0.51893667355154 0.70121089338741 0.15310901165494 
H8    H     0.23961043203371 0.50628265396905 0.12628322118254 
H9    H     0.45355165905500 0.03360889552243 0.19211610523648 
H10   H     0.35218042579585 0.25310030759833 0.21090728068220 
H11   H     0.22679973338719 0.30680609540455 0.21910819988200 
H12   H     0.10922951459082 0.53599416421117 0.15589144297606 
H13   H     0.11622206356685 0.16211714045810 0.21809916776135 
H14   H     0.04611888796847 0.86787526479710 0.19932765308615 
C1    C     0.32531259437868 0.59470151062724 0.02024538464351 
C2    C     0.36659305713763 0.51986998459317 0.05403873856522 
C3    C     0.37890133580368 0.63940876330340 0.10218864320071 
C4    C     0.33311033915563 0.80511009609868 0.13722868054210 
C5    C     0.31451332473119 0.47601283483316 0.97486057144131 
C6    C     0.40329226428308 0.32672006613298 0.03483218124134 
C7    C     0.44283889614920 0.59415921055896 0.11331936387101 
C8    C     0.25607076036777 0.82115858626138 0.15091770451075 
C9    C     0.36373785096268 0.95370632363629 0.16578325100263 
C10   C     0.34302316537438 0.27387369308578 0.96222058750974 
C11   C     0.38736533711202 0.20176640318350 0.99134562974406 
C12   C     0.45978138562377 0.27165803950974 0.05535707801134 
C13   C     0.48207094182114 0.40819027531282 0.08952585611621 
C14   C     0.21848693205614 0.00539276262348 0.18010722562865 
C15   C     0.46847591275208 0.73634508718688 0.14738306347972 
C16   C     0.21370275645952 0.65316859894568 0.14408898434249 
C17   C     0.43235036532491 0.91739003498658 0.16926422058017 
C18   C     0.32511802469729 0.13710119558473 0.19320687162766 
C19   C     0.25579689458244 0.16656948048516 0.19794934147329 
C20   C     0.13993051821925 0.66939847566526 0.16123416102025 
C21   C     0.14312670102798 0.02027960797297 0.19577190291592 
C22   C     0.10416099155434 0.85572314813053 0.18626905816110 
