data_stdin
_audit_creation_method 'critic2'
_audit_creation_date 2023-8-11
_chemical_formula_sum 'C22 H14'
_cell_formula_units_Z 4
_cell_length_a        11.8298481221
_cell_length_b        10.6275287300
_cell_length_c        12.1565930145
_cell_angle_alpha        90.0000
_cell_angle_beta        72.9242
_cell_angle_gamma        90.0000
_cell_volume          1460.977985
_space_group_crystal_system monoclinic
_space_group_IT_number 14
_space_group_name_H-M_alt 'P2_1/c'
_space_group_name_Hall '-P 2ybc'
loop_
_symmetry_equiv_pos_site_id
_symmetry_equiv_pos_as_xyz
 1 'x,y,z'
 2 '-x,-y,-z'
 3 '-x,-1/2+y,-1/2-z'
 4 'x,-1/2-y,-1/2+z'
loop_
_atom_site_label
_atom_site_type_symbol
_atom_site_fract_x
_atom_site_fract_y
_atom_site_fract_z
H1    H     0.41305762348072 0.05407581305903 0.70072473424741 
H2    H     0.59293100665838 0.02898768343970 0.53993981321594 
H3    H     0.74496292563285 0.86810796938874 0.54982216759975 
H4    H     0.72000648474344 0.74890595844007 0.73009487759687 
H5    H     0.61993784362883 0.72017383922703 0.93425357754394 
H6    H     0.46850127566649 0.79024596921245 0.10947838293104 
H7    H     0.29989259555850 0.92108617952407 0.20310649062582 
H8    H     0.29994018204013 0.83117996744188 0.72215752014242 
H9    H     0.14594540452419 0.07513731925886 0.19205649838276 
H10   H     0.03703208022104 0.18542226690880 0.08282382170185 
H11   H     0.98247162575863 0.21657638945443 0.90235610360389 
H12   H     0.21487843474129 0.82928996576297 0.56163072928959 
H13   H     0.98968680779575 0.14167917094061 0.71211091085688 
H14   H     0.06407155095258 0.99067823266557 0.55035313991924 
C1    C     0.47771489589352 0.98414352732583 0.70684023487617 
C2    C     0.45783242826369 0.91295975940734 0.80938055892719 
C3    C     0.35549157880509 0.93185109372647 0.90900720792869 
C4    C     0.24794306320829 0.99384038170129 0.90599943068992 
C5    C     0.57956614876857 0.97017278654110 0.61605050319162 
C6    C     0.55081826531186 0.83161209803297 0.81873597039922 
C7    C     0.36711034854979 0.89677073108243 0.01829506835807 
C8    C     0.20034082107792 0.99204530149638 0.80858435547899 
C9    C     0.17867353642109 0.05413128108208 0.00814648469637 
C10   C     0.66586501262751 0.88111816984093 0.62221308353631 
C11   C     0.65120825326016 0.81330549606336 0.72223117192504 
C12   C     0.54776968068526 0.78056585817146 0.92804129975411 
C13   C     0.46289971512106 0.81815816276490 0.02500042732870 
C14   C     0.10613133089571 0.07607995907000 0.80715791972284 
C15   C     0.28657832265931 0.94509515619159 0.12063775078291 
C16   C     0.23468615180126 0.90185331348643 0.71902333429321 
C17   C     0.20101651717209 0.02934721141368 0.11474384404588 
C18   C     0.08461336736144 0.13661196781579 0.00406780471025 
C19   C     0.05342574728496 0.15263215432270 0.90539610322132 
C20   C     0.18618962508863 0.90058732047859 0.62844901640650 
C21   C     0.06054884098795 0.07593631073564 0.71162832229733 
C22   C     0.10047247991742 0.99064974719418 0.62288869990377 
