data_stdin
_audit_creation_method 'critic2'
_audit_creation_date 2023-8-11
_chemical_formula_sum 'C22 H14'
_cell_formula_units_Z 8
_cell_length_a        26.6396009788
_cell_length_b         8.7780154444
_cell_length_c        20.7769669224
_cell_angle_alpha        89.9989
_cell_angle_beta        36.7569
_cell_angle_gamma        90.0000
_cell_volume          2907.456445
_space_group_crystal_system monoclinic
_space_group_IT_number 15
_space_group_name_H-M_alt 'C2/c'
_space_group_name_Hall '-C 2yc'
loop_
_symmetry_equiv_pos_site_id
_symmetry_equiv_pos_as_xyz
 1 'x,y,z'
 2 '-1/2-x,-1/2-y,-z'
 3 '-x,y,-1/2-z'
 4 'x,-y,-1/2+z'
 5 '-1/2+x,-1/2+y,z'
 6 '-x,-y,-z'
 7 '-1/2-x,-1/2+y,-1/2-z'
 8 '-1/2+x,-1/2-y,-1/2+z'
loop_
_atom_site_label
_atom_site_type_symbol
_atom_site_fract_x
_atom_site_fract_y
_atom_site_fract_z
H1    H     0.29727845006747 0.87373648030239 0.94420218002794 
H2    H     0.28556164997607 0.66703164961126 0.87748629992405 
H3    H     0.35880719991479 0.68436178014208 0.69647100983141 
H4    H     0.43560857988224 0.92171337012169 0.58950488014061 
H5    H     0.47834276035126 0.17915005004842 0.56972359970485 
H6    H     0.46541164003384 0.40772935049906 0.65241410983221 
H7    H     0.40882369973444 0.53286951035732 0.80240212036056 
H8    H     0.44539036009146 0.87290627001595 0.82627773994135 
H9    H     0.33140030008726 0.52491065003101 0.98564966996008 
H10   H     0.27287529030523 0.38805489044199 0.13298357972683 
H11   H     0.26188144991939 0.15058143987719 0.20936411021026 
H12   H     0.46104358992513 0.65957397023983 0.88458376024142 
H13   H     0.30865325988827 0.89281042945687 0.18064979002508 
H14   H     0.38819954993969 0.66226704961575 0.06627535989254 
C1    C     0.33045262992762 0.88325324977859 0.86470910982129 
C2    C     0.37742519016310 0.01706440000841 0.80359392000567 
C3    C     0.38262739997944 0.14436466016178 0.84285118989662 
C4    C     0.35905677998001 0.13977348009172 0.93444948027250 
C5    C     0.32360102992811 0.76658412950666 0.82740188992432 
C6    C     0.41306874986505 0.03108172996764 0.70392263024011 
C7    C     0.40664892015904 0.28785460988110 0.79183735969562 
C8    C     0.36518750987789 0.00749288967164 0.97010047033789 
C9    C     0.33424592022985 0.27914118014747 0.98939848992167 
C10   C     0.36392753987234 0.77715119978730 0.72579583029803 
C11   C     0.40717723965579 0.90830434996732 0.66600441039214 
C12   C     0.44973179029398 0.17164172031578 0.64657506971031 
C13   C     0.44323162991757 0.29695147020212 0.69168579005330 
C14   C     0.32945973991316 0.01312061018261 0.07011032033619 
C15   C     0.39124470028028 0.42465261970664 0.84228827968547 
C16   C     0.41325457978640 0.87679601025704 0.90520703028737 
C17   C     0.34974621966742 0.42051284001750 0.94239663027958 
C18   C     0.29678444004393 0.27985989975342 0.09032060022795 
C19   C     0.29096467998021 0.14993983038879 0.13203623006876 
C20   C     0.42192498010507 0.75594778948048 0.93832170982017 
C21   C     0.33700981978634 0.88582833950074 0.10390912014203 
C22   C     0.38194758993348 0.75833285962726 0.03982357012044 
