data_stdin
_audit_creation_method 'critic2'
_audit_creation_date 2023-8-11
_chemical_formula_sum 'C22 H14'
_cell_formula_units_Z 8
_cell_length_a        21.3915819405
_cell_length_b         4.5462552640
_cell_length_c        30.9468991321
_cell_angle_alpha        89.9971
_cell_angle_beta        77.6329
_cell_angle_gamma        89.9955
_cell_volume          2939.797927
_space_group_crystal_system monoclinic
_space_group_IT_number 15
_space_group_name_H-M_alt 'C2/c'
_space_group_name_Hall '-C 2yc'
loop_
_symmetry_equiv_pos_site_id
_symmetry_equiv_pos_as_xyz
 1 'x,y,z'
 2 '-1/2-x,-1/2-y,-z'
 3 '-x,y,-1/2-z'
 4 'x,-y,-1/2+z'
 5 '-1/2+x,-1/2+y,z'
 6 '-x,-y,-z'
 7 '-1/2-x,-1/2+y,-1/2-z'
 8 '-1/2+x,-1/2-y,-1/2+z'
loop_
_atom_site_label
_atom_site_type_symbol
_atom_site_fract_x
_atom_site_fract_y
_atom_site_fract_z
H1    H     0.36062766013583 0.58778191065321 0.17028431014024 
H2    H     0.42802128011664 0.63110615012080 0.22468576005141 
H3    H     0.51845746006992 0.99247823020213 0.21308711006230 
H4    H     0.54371191986533 0.28326517909770 0.14391585015702 
H5    H     0.52366649980841 0.41193177007629 0.07197767995167 
H6    H     0.47016226015075 0.29156627068253 0.01040143009329 
H7    H     0.39838868995631 0.99430520892929 0.97982110011697 
H8    H     0.30185505985229 0.08288664985250 0.17430656990042 
H9    H     0.31145795997285 0.62175371016684 0.98881850006554 
H10   H     0.22935635985869 0.33706045974905 0.03521840994445 
H11   H     0.15899267005523 0.23782972992650 0.10861368005645 
H12   H     0.21943030982980 0.05524392034008 0.24227875009441 
H13   H     0.12285459985059 0.37478393098055 0.18505812015110 
H14   H     0.13093443008702 0.68516247017047 0.24988017000784 
C1    C     0.39893081002638 0.74905034035504 0.16498593015755 
C2    C     0.40955782016688 0.92445408967146 0.12621300991324 
C3    C     0.37152347997254 0.89782150979157 0.09270228013331 
C4    C     0.31026589007909 0.75079891891428 0.09871048983530 
C5    C     0.43723894987607 0.77206514036750 0.19555694991534 
C6    C     0.46480318001045 0.11142467942450 0.11814880012496 
C7    C     0.39931543978947 0.00568484069300 0.04968061011404 
C8    C     0.26292980013880 0.73519703997919 0.14006371007087 
C9    C     0.29265664002094 0.63076437997793 0.06050275984477 
C10   C     0.48883288995262 0.97147154977482 0.18871970006117 
C11   C     0.50267485025177 0.13528423994261 0.15031013984633 
C12   C     0.48328642008283 0.26040612048904 0.07681615003937 
C13   C     0.45324169023072 0.19818049049292 0.04322089986248 
C14   C     0.20840201999069 0.54733337012320 0.14310798015299 
C15   C     0.37525110978984 0.91319965019508 0.01245559993643 
C16   C     0.26406314975232 0.92043503970194 0.17675592009565 
C17   C     0.32695088008244 0.71078320086327 0.01748524007666 
C18   C     0.23867066995651 0.43965126908954 0.06498775007019 
C19   C     0.19935438016311 0.38870598060232 0.10517614006991 
C20   C     0.21721578005695 0.90614564098175 0.21513693995776 
C21   C     0.16218079016359 0.52946268970240 0.18327086015138 
C22   C     0.16649326996638 0.70345363020016 0.21903071984117 
