data_stdin
_audit_creation_method 'critic2'
_audit_creation_date 2023-8-11
_chemical_formula_sum 'C22 H14'
_cell_formula_units_Z 4
_cell_length_a         8.7564623011
_cell_length_b         5.0007839756
_cell_length_c        34.3759723610
_cell_angle_alpha        89.9947
_cell_angle_beta        86.9063
_cell_angle_gamma        89.9999
_cell_volume          1503.101739
_space_group_crystal_system monoclinic
_space_group_IT_number 14
_space_group_name_H-M_alt 'P2_1/c'
_space_group_name_Hall '-P 2ybc'
loop_
_symmetry_equiv_pos_site_id
_symmetry_equiv_pos_as_xyz
 1 'x,y,z'
 2 '-x,-y,-z'
 3 '-x,-1/2+y,-1/2-z'
 4 'x,-1/2-y,-1/2+z'
loop_
_atom_site_label
_atom_site_type_symbol
_atom_site_fract_x
_atom_site_fract_y
_atom_site_fract_z
H1    H     0.27928611031913 0.08167021073376 0.15170578995417 
H2    H     0.04783496010536 0.14333332086051 0.19344861996162 
H3    H     0.02417869054876 0.52926708082453 0.23975829997848 
H4    H     0.24760899968192 0.83301828097615 0.24612587010727 
H5    H     0.50871445032862 0.95554795015245 0.22945255012541 
H6    H     0.76011897952702 0.83755457078421 0.19764174996034 
H7    H     0.91816016050144 0.54312627900646 0.15780609008544 
H8    H     0.28590778020654 0.49059153046866 0.10451212009663 
H9    H     0.94739998985933 0.15342874097802 0.11318864999052 
H10   H     0.83819181961117 0.82382520070682 0.07219973013530 
H11   H     0.61945905031089 0.65064483915119 0.03671043987275 
H12   H     0.09237623037093 0.38339496915698 0.05820952010823 
H13   H     0.36519979966957 0.72260825977856 0.01432077008450 
H14   H     0.12564812035296 0.98666552953629 0.01398057987712 
C1    C     0.27114835015085 0.25359010939179 0.17097231995036 
C2    C     0.39641858948825 0.43237577053585 0.17201318003384 
C3    C     0.53768607033944 0.39637279980701 0.14837477993843 
C4    C     0.55571415966227 0.22392238925627 0.11472357013034 
C5    C     0.14077327992619 0.28699058016173 0.19491813011873 
C6    C     0.38745063960279 0.63781548028575 0.20107870000614 
C7    C     0.67060384019755 0.52528421920383 0.16147405991649 
C8    C     0.43590338013952 0.15946041999377 0.08855927998723 
C9    C     0.70447508990878 0.12106821093943 0.10475423986090 
C10   C     0.12832047994194 0.50209064062450 0.22141244002674 
C11   C     0.25111264052396 0.67225754936173 0.22467107010825 
C12   C     0.51899780941755 0.79517293956975 0.20808905014059 
C13   C     0.65704480038168 0.73128253903313 0.19022078010696 
C14   C     0.46015388001143 0.94837090972555 0.06070990000513 
C15   C     0.81833313985658 0.44358361997914 0.14696173993365 
C16   C     0.30154094049383 0.31520554081509 0.08610449994279 
C17   C     0.83452738982343 0.23187730044074 0.12184098012939 
C18   C     0.72434750003910 0.90984756048685 0.07694962007771 
C19   C     0.60454200949222 0.81585983031708 0.05719111007437 
C20   C     0.19232301016755 0.25500259976627 0.05983679986832 
C21   C     0.34469020009242 0.88572151926936 0.03492098995394 
C22   C     0.21174381943727 0.03398382012018 0.03463372001159 
