data_stdin
_audit_creation_method 'critic2'
_audit_creation_date 2023-8-11
_chemical_formula_sum 'C22 H14'
_cell_formula_units_Z 4
_cell_length_a         8.9507503981
_cell_length_b         7.7258129115
_cell_length_c        22.1286720208
_cell_angle_alpha        90.0012
_cell_angle_beta        66.1727
_cell_angle_gamma        90.0004
_cell_volume          1399.812167
_space_group_crystal_system monoclinic
_space_group_IT_number 14
_space_group_name_H-M_alt 'P2_1/c'
_space_group_name_Hall '-P 2ybc'
loop_
_symmetry_equiv_pos_site_id
_symmetry_equiv_pos_as_xyz
 1 'x,y,z'
 2 '-x,-y,-z'
 3 '-x,-1/2+y,-1/2-z'
 4 'x,-1/2-y,-1/2+z'
loop_
_atom_site_label
_atom_site_type_symbol
_atom_site_fract_x
_atom_site_fract_y
_atom_site_fract_z
H1    H     0.85915910033134 0.90530896024257 0.51343084991497 
H2    H     0.98393014982851 0.95269085954368 0.59227975988215 
H3    H     0.85728960062450 0.82852805960055 0.70584106992822 
H4    H     0.59491084050193 0.66875245059952 0.74048324989086 
H5    H     0.36992224965383 0.55641469991529 0.71819132004137 
H6    H     0.21041051966634 0.56978438956063 0.64852904011601 
H7    H     0.17370715933008 0.68159021966501 0.55556806018343 
H8    H     0.88592396955602 0.59438899057316 0.48653007991833 
H9    H     0.28502449982823 0.81868581039471 0.44423356985129 
H10   H     0.50757319982988 0.93057910974980 0.35134520993818 
H11   H     0.80627405971360 0.94389976998951 0.28176590993285 
H12   H     0.16827683040442 0.54703670008880 0.40774282987901 
H13   H     0.07574621981212 0.83149267013990 0.25953705981341 
H14   H     0.26874011013977 0.67149573950821 0.29422485006824 
C1    C     0.80300502971300 0.84774607032261 0.56221316005079 
C2    C     0.65678181033824 0.75124528042660 0.57910927012641 
C3    C     0.57365753976415 0.73128966957345 0.53501253016989 
C4    C     0.64374158956420 0.76869554052146 0.46490471024540 
C5    C     0.87338175038070 0.87525721018209 0.60666321989277 
C6    C     0.57983900992888 0.68995288014102 0.64582897023734 
C7    C     0.40512719030761 0.68619031936912 0.56483715985734 
C8    C     0.81496767997464 0.74869530045664 0.42084510982179 
C9    C     0.53489354985329 0.81393001989052 0.43504343980385 
C10   C     0.80089958056433 0.80712384009976 0.67111317979081 
C11   C     0.65585376983092 0.71709767048988 0.69014549985784 
C12   C     0.42217544005959 0.61178867036853 0.66869362005701 
C13   C     0.33538674028867 0.61785605940569 0.63033755013379 
C14   C     0.87144235004420 0.81012314980574 0.35413770024387 
C15   C     0.30277096020322 0.71327489996259 0.53058529000651 
C16   C     0.92733483052400 0.65206525987277 0.43776207992499 
C17   C     0.36410022947224 0.78691501942684 0.46924672019979 
C18   C     0.59612805052524 0.88237594049998 0.36955838979229 
C19   C     0.75955596032019 0.88842533041605 0.33124814979916 
C20   C     0.08653767974207 0.62456922997580 0.39334812022765 
C21   C     0.03601826951615 0.78300911949151 0.30986220023369 
C22   C     0.14294501040038 0.69286767965476 0.32891891006891 
