data_stdin
_audit_creation_method 'critic2'
_audit_creation_date 2023-8-11
_chemical_formula_sum 'C22 H14'
_cell_formula_units_Z 4
_cell_length_a         5.2401007579
_cell_length_b        29.8125382151
_cell_length_c         9.4813265876
_cell_angle_alpha        90.0032
_cell_angle_beta        83.2211
_cell_angle_gamma        90.0006
_cell_volume          1470.824663
_space_group_crystal_system monoclinic
_space_group_IT_number 14
_space_group_name_H-M_alt 'P2_1/c'
_space_group_name_Hall '-P 2ybc'
loop_
_symmetry_equiv_pos_site_id
_symmetry_equiv_pos_as_xyz
 1 'x,y,z'
 2 '-x,-y,-z'
 3 '-x,-1/2+y,-1/2-z'
 4 'x,-1/2-y,-1/2+z'
loop_
_atom_site_label
_atom_site_type_symbol
_atom_site_fract_x
_atom_site_fract_y
_atom_site_fract_z
H1    H     0.92519382957552 0.93711286011958 0.12977861021110 
H2    H     0.01253944058954 0.01770369998734 0.11101629002486 
H3    H     0.37841575938743 0.05115574991093 0.21819591949374 
H4    H     0.63701965909577 0.00299565988919 0.36374287043043 
H5    H     0.71094452060110 0.93192962983852 0.47488241952906 
H6    H     0.56199342057871 0.85429114009073 0.53654769961868 
H7    H     0.26413943994864 0.79425685014316 0.52273819974991 
H8    H     0.33030738958970 0.89969834001012 0.98852207044865 
H9    H     0.90842675053765 0.75876658003610 0.41211119011689 
H10   H     0.61445175977963 0.75865381007797 0.23482568997494 
H11   H     0.48519279983757 0.78598548005975 0.00639093015526 
H12   H     0.27359714931347 0.91091083001550 0.73734371046358 
H13   H     0.60641619032604 0.82598806986204 0.78512086958666 
H14   H     0.90931146954861 0.87572503001685 0.63438967022330 
C1    C     0.08804608035043 0.95076207989681 0.17647728955347 
C2    C     0.23943344973050 0.92185743012776 0.25133781977913 
C3    C     0.18830243086432 0.87407811997091 0.26827042000611 
C4    C     0.03067072969773 0.84806558006807 0.18342841991036 
C5    C     0.13656339939994 0.99627566016207 0.16608550020685 
C6    C     0.43225783033832 0.94220141004211 0.32563927960692 
C7    C     0.28697161918291 0.85226906001963 0.38400718002444 
C8    C     0.99481985012534 0.85747223015541 0.03650060051232 
C9    C     0.91404561897813 0.80826225985098 0.24405120036171 
C10   C     0.34118836981164 0.01533327994944 0.22919609993979 
C11   C     0.48460219073422 0.98866609991226 0.30906130014842 
C12   C     0.55934338027036 0.91621059005457 0.42279461041311 
C13   C     0.47923265895841 0.87352186985251 0.45554190048906 
C14   C     0.79552883990904 0.83475164983991 0.97353489028094 
C15   C     0.19037053097160 0.80959206998946 0.43133107989451 
C16   C     0.16678925986331 0.88450753007691 0.94640622008476 
C17   C     0.99628981089099 0.78971949986126 0.36928742961233 
C18   C     0.71395825908051 0.78672850014459 0.17916164993040 
C19   C     0.64488975001274 0.80132421015209 0.05262118953814 
C20   C     0.13593551082493 0.89075442013284 0.80496647978412 
C21   C     0.76310016004918 0.84291772987797 0.82953499971310 
C22   C     0.92988563960766 0.87054838998049 0.74605210038388 
