data_stdin
_audit_creation_method 'critic2'
_audit_creation_date 2023-8-11
_chemical_formula_sum 'C22 H14'
_cell_formula_units_Z 4
_cell_length_a        16.5617887814
_cell_length_b         8.5977786030
_cell_length_c        10.5768629011
_cell_angle_alpha        89.9990
_cell_angle_beta        78.8871
_cell_angle_gamma        89.9985
_cell_volume          1477.847780
_space_group_crystal_system monoclinic
_space_group_IT_number 5
_space_group_name_H-M_alt 'C2'
_space_group_name_Hall 'C 2y'
loop_
_symmetry_equiv_pos_site_id
_symmetry_equiv_pos_as_xyz
 1 'x,y,z'
 2 '-x,y,-z'
 3 '-1/2+x,-1/2+y,z'
 4 '-1/2-x,-1/2+y,-z'
loop_
_atom_site_label
_atom_site_type_symbol
_atom_site_fract_x
_atom_site_fract_y
_atom_site_fract_z
H1    H     0.05432459009873 0.99823933968747 0.13723693046382 
H2    H     0.14954495012408 0.78358877004571 0.15140354005950 
H3    H     0.23778231976194 0.78535261984905 0.31679849967927 
H4    H     0.23463563008143 0.01567983053973 0.46159957032364 
H5    H     0.18932477994584 0.27808374018953 0.52217524027962 
H6    H     0.12195099000161 0.52054695991070 0.46784473990898 
H7    H     0.04355811981687 0.65935914026493 0.33397602983680 
H8    H     0.94573974993759 0.99813742053504 0.36247250958443 
H9    H     0.95677100022792 0.65969979951324 0.16684097032772 
H10   H     0.87832916998585 0.52143493950947 0.03271567983418 
H11   H     0.81083831988328 0.27928076032514 0.97799937032181 
H12   H     0.85028000001959 0.78391684991466 0.34820425968785 
H13   H     0.76531853980806 0.01691396989302 0.03830462994444 
H14   H     0.76195885016034 0.78636557956374 0.18294397999379 
C1    C     0.09139235027504 0.00083513988739 0.21146605976822 
C2    C     0.08603828031444 0.13129514988244 0.29467911954663 
C3    C     0.03414303998080 0.26483971048647 0.28350449043068 
C4    C     0.96605426983354 0.26501233037987 0.21658390043797 
C5    C     0.14531489029265 0.88004320050171 0.21905559976180 
C6    C     0.14194013995992 0.13762185991307 0.38236588966620 
C7    C     0.05629053000679 0.40847101987437 0.33457165046089 
C8    C     0.91408308976876 0.13163528977746 0.20522215967411 
C9    C     0.94395817019346 0.40883650955214 0.16577582970429 
C10   C     0.19585683021965 0.88180719024611 0.31209585998546 
C11   C     0.19418115994026 0.00932782043792 0.39184088956866 
C12   C     0.14920030972584 0.27744524953394 0.45194686012280 
C13   C     0.11141666023569 0.41016008057143 0.42304833043266 
C14   C     0.85816312010893 0.13833818000487 0.11758195004698 
C15   C     0.02464651009439 0.55062399949738 0.29557860977459 
C16   C     0.90864518018676 0.00102082965465 0.28828456043657 
C17   C     0.97564947024727 0.55081040985271 0.20503181999653 
C18   C     0.88882592985558 0.41089569024267 0.07731080987898 
C19   C     0.85097858979326 0.27835164034997 0.04820210039544 
C20   C     0.85459171017662 0.88046712013775 0.28063402048250 
C21   C     0.80579154976393 0.01026598968274 0.10802215020831 
C22   C     0.80400585976806 0.88261849963327 0.18765884994770 
