data_stdin
_audit_creation_method 'critic2'
_audit_creation_date 2023-8-11
_chemical_formula_sum 'C22 H14'
_cell_formula_units_Z 2
_cell_length_a         8.8908626986
_cell_length_b        11.4646283499
_cell_length_c         7.7672231466
_cell_angle_alpha        76.0591
_cell_angle_beta        90.2482
_cell_angle_gamma        67.1539
_cell_volume           703.864369
_space_group_crystal_system triclinic
_space_group_IT_number 2
_space_group_name_H-M_alt 'P-1'
_space_group_name_Hall '-P 1'
loop_
_symmetry_equiv_pos_site_id
_symmetry_equiv_pos_as_xyz
 1 'x,y,z'
 2 '-x,-y,-z'
loop_
_atom_site_label
_atom_site_type_symbol
_atom_site_fract_x
_atom_site_fract_y
_atom_site_fract_z
H1    H     0.35931623053444 0.02423308993086 0.58378273985283 
H2    H     0.49042843017632 0.17786624978157 0.48377054962471 
H3    H     0.36950574018913 0.40245760998757 0.52932966041245 
H4    H     0.10296862962173 0.47551289986673 0.65723465996931 
H5    H     0.86727209038012 0.43848303992643 0.76583013025480 
H6    H     0.70426737032069 0.30139315020216 0.80265785043731 
H7    H     0.66921052998835 0.11249538966427 0.77363294949474 
H8    H     0.38525383991929 0.97521588031408 0.91597044032656 
H9    H     0.78088006995406 0.88813429982794 0.72822010970604 
H10   H     0.00421221953593 0.69905871025794 0.69831225950191 
H11   H     0.30462297973810 0.56164788983600 0.73405269937662 
H12   H     0.67077807998162 0.82114353961065 0.01570870058118 
H13   H     0.57860347972276 0.52406718006163 0.84224567050209 
H14   H     0.77360891968108 0.59658841995149 0.97004623959771 
C1    C     0.30510723047218 0.12111336964766 0.60650066061847 
C2    C     0.15748147955409 0.15659440019103 0.68856084033176 
C3    C     0.07221339986556 0.07003519056377 0.74078218950853 
C4    C     0.14215870033486 0.93000655045224 0.75924583998185 
C5    C     0.37922748069177 0.20753278967761 0.54980040006138 
C6    C     0.08190198995971 0.28964865973311 0.70000686940662 
C7    C     0.90225451937649 0.13082446037437 0.76081563012752 
C8    C     0.31444598009912 0.84319332026074 0.81115266996803 
C9    C     0.03252632071910 0.86945504957811 0.73973979999342 
C10   C     0.30982514035207 0.33517049995326 0.57330430936253 
C11   C     0.16280583943468 0.37522709004368 0.64596990997080 
C12   C     0.92072364942203 0.33813924030074 0.75371395042721 
C13   C     0.83176279976265 0.26291837033142 0.77445582064234 
C14   C     0.37154544942609 0.71018734005624 0.79959239980703 
C15   C     0.79911852029530 0.06216402031514 0.76199516960271 
C16   C     0.42751586049280 0.87836740006039 0.89317448967242 
C17   C     0.86077051006077 0.93832107015076 0.73927113037224 
C18   C     0.09370386000578 0.73737621002197 0.72605226976810 
C19   C     0.25806511971676 0.66196869034668 0.74622820966300 
C20   C     0.58852376922938 0.79169663056552 0.94970216938399 
C21   C     0.53847984000013 0.62433786006576 0.85347868991232 
C22   C     0.64629546984660 0.66409949049267 0.92610987973730 
