data_stdin
_audit_creation_method 'critic2'
_audit_creation_date 2023-8-11
_chemical_formula_sum 'C22 H14'
_cell_formula_units_Z 4
_cell_length_a         7.9380734096
_cell_length_b         8.8795672530
_cell_length_c        20.0551980072
_cell_angle_alpha        89.9983
_cell_angle_beta        87.6076
_cell_angle_gamma        89.9996
_cell_volume          1412.391746
_space_group_crystal_system monoclinic
_space_group_IT_number 14
_space_group_name_H-M_alt 'P2_1/c'
_space_group_name_Hall '-P 2ybc'
loop_
_symmetry_equiv_pos_site_id
_symmetry_equiv_pos_as_xyz
 1 'x,y,z'
 2 '-x,-y,-z'
 3 '-x,-1/2+y,-1/2-z'
 4 'x,-1/2-y,-1/2+z'
loop_
_atom_site_label
_atom_site_type_symbol
_atom_site_fract_x
_atom_site_fract_y
_atom_site_fract_z
H1    H     0.59519173035423 0.05498770008624 0.88412039016132 
H2    H     0.54517060983529 0.26716549997692 0.96057789986359 
H3    H     0.66574900950122 0.26684842050579 0.07325185979522 
H4    H     0.82021465011745 0.04072400991595 0.11106647975295 
H5    H     0.90500096962504 0.78109569009076 0.09546265981681 
H6    H     0.88409501023146 0.54543137971450 0.03087624022364 
H7    H     0.80398784033933 0.41028478963259 0.93417440983932 
H8    H     0.91247467972319 0.05147506053255 0.85855216977329 
H9    H     0.68753681026658 0.40518368009975 0.82108046016138 
H10   H     0.60176916031616 0.53206002987197 0.72331363013286 
H11   H     0.60195534018605 0.76003220006594 0.65149179999563 
H12   H     0.97218369024628 0.25371398944702 0.77772936997684 
H13   H     0.70334578031823 0.01178189024779 0.62966559977435 
H14   H     0.86404540030962 0.23880607043176 0.66315895991634 
C1    C     0.65111814002868 0.05340510982394 0.93259192021737 
C2    C     0.74400200953349 0.92497412037463 0.95138617999859 
C3    C     0.76448721956570 0.79256628031181 0.90909528000100 
C4    C     0.73905274060736 0.78844266036975 0.83807513997171 
C5    C     0.62320398984120 0.17320061001176 0.97553320989483 
C6    C     0.79939087956237 0.92039156972852 0.01839549985525 
C7    C     0.79926772969262 0.65381120987508 0.94151316012478 
C8    C     0.76797809957374 0.91430410978967 0.79255837001869 
C9    C     0.69689613047222 0.64753583055277 0.80901866989219 
C10   C     0.68980583032227 0.17252624964301 0.03956065979612 
C11   C     0.77596305942211 0.04743007043726 0.06044662992567 
C12   C     0.86180955999008 0.78304924052847 0.04464864004896 
C13   C     0.85197503967436 0.65307318022922 0.00872474986308 
C14   C     0.71583901947884 0.90266928048810 0.72518807002135 
C15   C     0.77720104948445 0.51443007044718 0.90799265982965 
C16   C     0.86284369055594 0.04331277975281 0.80908813007852 
C17   C     0.71517143040320 0.51152489989356 0.84542024003161 
C18   C     0.64315870008150 0.64055121945544 0.74200082998213 
C19   C     0.64418218027270 0.76549604003530 0.70240783016024 
C20   C     0.89634736985741 0.15756661045498 0.76366930011895 
C21   C     0.74713605009801 0.02330010965976 0.68017443980731 
C22   C     0.83563903977003 0.14911334038264 0.69880124018863 
