data_stdin
_audit_creation_method 'critic2'
_audit_creation_date 2023-8-11
_chemical_formula_sum 'C22 H14'
_cell_formula_units_Z 8
_cell_length_a        23.2656893502
_cell_length_b        16.7893759806
_cell_length_c         7.3214305214
_cell_angle_alpha        89.9990
_cell_angle_beta        90.0003
_cell_angle_gamma        90.0007
_cell_volume          2859.870876
_space_group_crystal_system orthorhombic
_space_group_IT_number 56
_space_group_name_H-M_alt 'Pccn'
_space_group_name_Hall '-P 2ab 2ac'
loop_
_symmetry_equiv_pos_site_id
_symmetry_equiv_pos_as_xyz
 1 'x,y,z'
 2 '-x,-y,-z'
 3 '-1/2-x,-1/2-y,z'
 4 '-1/2+x,-1/2+y,-z'
 5 '-x,-1/2+y,-1/2-z'
 6 'x,-1/2-y,-1/2+z'
 7 '-1/2+x,-y,-1/2-z'
 8 '-1/2-x,y,-1/2+z'
loop_
_atom_site_label
_atom_site_type_symbol
_atom_site_fract_x
_atom_site_fract_y
_atom_site_fract_z
H1    H     0.61673714314887 0.92200016987110 0.77171915769418 
H2    H     0.66576476033012 0.90283976794008 0.47868486554659 
H3    H     0.72436791270728 0.01246399017484 0.34229337246525 
H4    H     0.72846953895002 0.14368888879713 0.49700150450269 
H5    H     0.69291444525109 0.23527398337804 0.72995693583248 
H6    H     0.62142180735120 0.26385925748325 0.97086318324182 
H7    H     0.54544216149825 0.22123220651091 0.17080422942399 
H8    H     0.69697818726132 0.94690895838343 0.01634460410880 
H9    H     0.48529073391965 0.11341565954782 0.30558643925756 
H10   H     0.46728056062470 0.97451465487398 0.36051206355347 
H11   H     0.49999779757017 0.83462562118612 0.35963722823012 
H12   H     0.73815864596788 0.81661618533091 0.08048621946829 
H13   H     0.57877457641743 0.74015766530772 0.32244578158640 
H14   H     0.67854188624926 0.70980445290044 0.22879971691017 
C1    C     0.64216710566316 0.97037219212352 0.71528793003025 
C2    C     0.64439624034467 0.04401249815655 0.81000140524926 
C3    C     0.61214016527387 0.05907976367624 0.97658432857389 
C4    C     0.58766065653469 0.99828157079060 0.09252438375386 
C5    C     0.66992314676356 0.95937838216087 0.55024640187515 
C6    C     0.67436078299040 0.10825753468945 0.72328818701786 
C7    C     0.59945480140415 0.14003798484854 0.01822397493649 
C8    C     0.61201179412296 0.91951690625052 0.11966953746912 
C9    C     0.53861390717465 0.01848891438698 0.19899281831853 
C10   C     0.70251369398002 0.02143684918159 0.47215492731788 
C11   C     0.70470893515807 0.09452374508359 0.55834435977458 
C12   C     0.66915630018422 0.18704024306175 0.79484675431408 
C13   C     0.63014089483167 0.20274480380183 0.92952182401921 
C14   C     0.57957100986164 0.86021192733041 0.21550972413185 
C15   C     0.55461229030115 0.15880441036201 0.14308812487926 
C16   C     0.66983287035041 0.90126480888525 0.07616603503408 
C17   C     0.52218867909069 0.09959939521493 0.21968368225288 
C18   C     0.50668397357069 0.95772054995625 0.29027061591852 
C19   C     0.52499702669500 0.88055960816865 0.29092549709699 
C20   C     0.69332726287122 0.82756541974888 0.11451312888176 
C21   C     0.60404437279843 0.78430435236083 0.24843037121268 
C22   C     0.65997742077790 0.76773634346955 0.19802095042920 
