data_stdin
_audit_creation_method 'critic2'
_audit_creation_date 2023-8-11
_chemical_formula_sum 'C22 H14'
_cell_formula_units_Z 4
_cell_length_a        14.6042207076
_cell_length_b         4.9047425919
_cell_length_c        20.1342723155
_cell_angle_alpha        90.0002
_cell_angle_beta        85.0854
_cell_angle_gamma        90.0000
_cell_volume          1436.914475
_space_group_crystal_system monoclinic
_space_group_IT_number 14
_space_group_name_H-M_alt 'P2_1/c'
_space_group_name_Hall '-P 2ybc'
loop_
_symmetry_equiv_pos_site_id
_symmetry_equiv_pos_as_xyz
 1 'x,y,z'
 2 '-x,-y,-z'
 3 '-x,-1/2+y,-1/2-z'
 4 'x,-1/2-y,-1/2+z'
loop_
_atom_site_label
_atom_site_type_symbol
_atom_site_fract_x
_atom_site_fract_y
_atom_site_fract_z
H1    H     0.21260742019431 0.77528978023782 0.72520820992867 
H2    H     0.22937249967712 0.85666472973171 0.84343974015835 
H3    H     0.32886456000629 0.23889503076958 0.87867696006563 
H4    H     0.42078107987774 0.50799384977472 0.79232562022055 
H5    H     0.47581492996224 0.58521309914849 0.67645551007939 
H6    H     0.48434077022230 0.43287162960195 0.55862968020087 
H7    H     0.43925466003655 0.12356033037392 0.47376539999317 
H8    H     0.13457140024389 0.22939681005421 0.68326912991558 
H9    H     0.34215328011525 0.74157766983454 0.43938008992879 
H10   H     0.21266386986466 0.43165550012092 0.46338066020548 
H11   H     0.06121135981077 0.34086967921461 0.52435729993609 
H12   H     0.97112094010561 0.22038964083458 0.72036534020160 
H13   H     0.93423770029635 0.51527653054768 0.59812311995177 
H14   H     0.86889562007960 0.85694806096838 0.68005283979898 
C1    C     0.25612824029469 0.94126188953777 0.73941550008118 
C2    C     0.30369661969789 0.10092336900255 0.68892117012016 
C3    C     0.29758020002442 0.05055618040596 0.61835490002511 
C4    C     0.22667182023766 0.89051667906398 0.59125380996304 
C5    C     0.26594041024669 0.98687322916375 0.80618469022562 
C6    C     0.36780170978202 0.29881926091640 0.70926641993369 
C7    C     0.37037897012719 0.15059928101050 0.57339427019238 
C8    C     0.13178527011184 0.87441990929694 0.61934559990879 
C9    C     0.24877831013920 0.75782363052821 0.52908960002360 
C10   C     0.32319792001094 0.19806936101931 0.82598983981973 
C11   C     0.37384581031583 0.34966625040906 0.77803945984344 
C12   C     0.42895386004658 0.43080724097847 0.66031883024655 
C13   C     0.43288403984403 0.34865529060224 0.59533844987465 
C14   C     0.07164394980492 0.67852966988037 0.59331134988588 
C15   C     0.38257142030125 0.04651344963601 0.50723374020305 
C16   C     0.09207130988666 0.06779582937225 0.66554815992145 
C17   C     0.32820698993919 0.83836473054948 0.48792994015949 
C18   C     0.18925159984382 0.55147070014118 0.50713820023436 
C19   C     0.10538388005148 0.50287665973886 0.54021475983280 
C20   C     0.99933312011591 0.06408036997594 0.68617007994699 
C21   C     0.97772035005748 0.67162024942681 0.61743271999712 
C22   C     0.94156823967226 0.86228231953198 0.66277106988804 
