data_stdin
_audit_creation_method 'critic2'
_audit_creation_date 2023-8-11
_chemical_formula_sum 'C22 H14'
_cell_formula_units_Z 2
_cell_length_a        13.1700899112
_cell_length_b         7.5738996677
_cell_length_c         7.5727995532
_cell_angle_alpha        72.0695
_cell_angle_beta        77.9611
_cell_angle_gamma        77.9862
_cell_volume           694.423671
_space_group_crystal_system monoclinic
_space_group_IT_number 15
_space_group_name_H-M_alt 'C2/c'
_space_group_name_Hall '-C 2yc'
loop_
_symmetry_equiv_pos_site_id
_symmetry_equiv_pos_as_xyz
 1 'x,y,z'
 2 '-x,-y,-z'
 3 '-1/2-x,-z,-y'
 4 '-1/2+x,z,y'
loop_
_atom_site_label
_atom_site_type_symbol
_atom_site_fract_x
_atom_site_fract_y
_atom_site_fract_z
H1    H     0.31841024982309 0.45765278035165 0.35158535027263 
H2    H     0.26780599028815 0.56211287998129 0.03719227975149 
H3    H     0.09805506006638 0.50296723068072 0.98889403979108 
H4    H     0.98459186995047 0.31860584958285 0.25882873028567 
H5    H     0.95726905004285 0.12493559076334 0.58054340950226 
H6    H     0.03163589004012 0.95096455011240 0.87077220980929 
H7    H     0.16636192975402 0.88031042956800 0.06150258046156 
C1    C     0.24373374984102 0.43124817032635 0.33385411013135 
C2    C     0.17902719992901 0.33327765023155 0.49270808052368 
C3    C     0.20921472995979 0.26122066026312 0.67909477014592 
C4    C     0.21518668007299 0.49093941018138 0.15681431953946 
C5    C     0.08569075960197 0.28699067066765 0.46033226960906 
C6    C     0.16023575017115 0.10957767025551 0.80626345937855 
C7    C     0.11941977000904 0.45653870946246 0.12909062976344 
C8    C     0.05636998986154 0.35507597970356 0.27884767934338 
C9    C     0.02851792000317 0.15814505946422 0.60613533983478 
C10   C     0.06865988036937 0.06418874937581 0.76778388058671 
C11   C     0.20422018011662 0.99780258953916 0.96901683939229 
