data_stdin
_audit_creation_method 'critic2'
_audit_creation_date 2023-8-11
_chemical_formula_sum 'C22 H14'
_cell_formula_units_Z 2
_cell_length_a         9.9022169461
_cell_length_b         5.7815306901
_cell_length_c        13.0421173804
_cell_angle_alpha        90.0000
_cell_angle_beta       101.2253
_cell_angle_gamma        90.0003
_cell_volume           732.376738
_space_group_crystal_system monoclinic
_space_group_IT_number 4
_space_group_name_H-M_alt 'P2_1'
_space_group_name_Hall 'P 2yb'
loop_
_symmetry_equiv_pos_site_id
_symmetry_equiv_pos_as_xyz
 1 'x,y,z'
 2 '-x,-1/2+y,-z'
loop_
_atom_site_label
_atom_site_type_symbol
_atom_site_fract_x
_atom_site_fract_y
_atom_site_fract_z
H1    H     0.54908796998964 0.88831162073869 0.24617278024762 
H2    H     0.32372458022553 0.70396188989644 0.19292827028555 
H3    H     0.30302092999360 0.31741203957023 0.10290534005957 
H4    H     0.50931274041280 0.14333098957735 0.05262644017547 
H5    H     0.74925993951427 0.16976628069290 0.03633603014650 
H6    H     0.96316823957037 0.40456642937320 0.05404969969216 
H7    H     0.09614555050639 0.74034591973978 0.11672990013546 
H8    H     0.67656466988724 0.57824561983052 0.37985892030576 
H9    H     0.12973658036589 0.09933600004245 0.22462196030519 
H10   H     0.06060886018243 0.35340047012787 0.34984457002155 
H11   H     0.92211181985801 0.43277147923361 0.48427494023480 
H12   H     0.58157296023533 0.62032585004154 0.53811060977355 
H13   H     0.76814270048247 0.29292268043113 0.59282226022179 
H14   H     0.61857944000907 0.98353750013662 0.64335919024088 
C1    C     0.54221100967481 0.72177206030522 0.20688546961557 
C2    C     0.66365615969936 0.61800625059904 0.18603294033675 
C3    C     0.79894103983603 0.72270752030676 0.21642464030611 
C4    C     0.83589613043447 0.89392362017295 0.29766410995376 
C5    C     0.41497514996454 0.61745886979403 0.17667316978044 
C6    C     0.64829389041683 0.41249121986044 0.12354861023493 
C7    C     0.90003464024442 0.65744622925297 0.15768689988183 
C8    C     0.77230718032997 0.91681581935293 0.38882448031100 
C9    C     0.95038712022169 0.04029603948009 0.29313320019011 
C10   C     0.40289864039576 0.40195855973366 0.12490327969525 
C11   C     0.51798145944256 0.30305970080571 0.09766712958607 
C12   C     0.76172849985250 0.32949249955177 0.08135882984629 
C13   C     0.87974833006077 0.45695298070041 0.09255858984377 
C14   C     0.80327269019138 0.11558004006940 0.45487684994026 
C15   C     0.02175674963132 0.79158943013850 0.16397108030186 
C16   C     0.69331990960356 0.73899721938576 0.42343671009186 
C17   C     0.04129970020857 0.98681600019389 0.22439108020904 
C18   C     0.97728622967527 0.23781306059028 0.35957975006175 
C19   C     0.90201508980796 0.28046674975384 0.43469647984091 
C20   C     0.64072833994072 0.76158388986953 0.51369578986041 
C21   C     0.74400595037246 0.13856390986535 0.54483993980173 
C22   C     0.66299019011023 0.96532373916870 0.57375576976592 
