data_stdin
_audit_creation_method 'critic2'
_audit_creation_date 2023-8-11
_chemical_formula_sum 'C22 H14'
_cell_formula_units_Z 4
_cell_length_a        11.9885014088
_cell_length_b         8.1316450138
_cell_length_c        17.9582094068
_cell_angle_alpha        90.0018
_cell_angle_beta        56.6650
_cell_angle_gamma        90.0013
_cell_volume          1462.641802
_space_group_crystal_system monoclinic
_space_group_IT_number 14
_space_group_name_H-M_alt 'P2_1/c'
_space_group_name_Hall '-P 2ybc'
loop_
_symmetry_equiv_pos_site_id
_symmetry_equiv_pos_as_xyz
 1 'x,y,z'
 2 '-x,-y,-z'
 3 '-x,-1/2+y,-1/2-z'
 4 'x,-1/2-y,-1/2+z'
loop_
_atom_site_label
_atom_site_type_symbol
_atom_site_fract_x
_atom_site_fract_y
_atom_site_fract_z
H1    H     0.85545347047494 0.11725876117759 0.86733058928672 
H2    H     0.94073781454333 0.19251116070920 0.95778931535475 
H3    H     0.86343356448977 0.04315162899543 0.10084347462328 
H4    H     0.68588876172640 0.83213795580154 0.15448957477520 
H5    H     0.51806419345401 0.69069992786501 0.14177119068294 
H6    H     0.40741494520239 0.64484250118731 0.06107997088100 
H7    H     0.38548308811031 0.69686281448526 0.93938216902283 
H8    H     0.95079327367059 0.82610132531907 0.81246500291603 
H9    H     0.45883221033255 0.84140648404489 0.79797651613331 
H10   H     0.61843128742933 0.01310316071041 0.67460335380404 
H11   H     0.84718760943233 0.12321359114521 0.57767724223819 
H12   H     0.18558312537503 0.88492260734877 0.70125297700718 
H13   H     0.07871180247193 0.12770206339532 0.53587732379079 
H14   H     0.25184610696132 0.04476892087788 0.56311562506174 
C1    C     0.82074180294377 0.04909099708945 0.92820400370838 
C2    C     0.72709314764396 0.92026169258103 0.95319488139688 
C3    C     0.67538750310424 0.87121116573326 0.89981864740706 
C4    C     0.73346008482074 0.91698308265650 0.80772960512463 
C5    C     0.86833520125722 0.09297386442747 0.98018795346796 
C6    C     0.67300861097886 0.84814491301763 0.03924024431585 
C7    C     0.55283064698701 0.78208004303705 0.94387438850852 
C8    C     0.87411604228483 0.95101191468281 0.74297690171719 
C9    C     0.64768983460114 0.92080317999306 0.77591391278219 
C10   C     0.82375954771733 0.01043544325454 0.06092342892353 
C11   C     0.72610365461018 0.89153625256084 0.09022637736160 
C12   C     0.56001567661915 0.74204491292633 0.07552401314945 
C13   C     0.49918832383473 0.71609590487191 0.03085247602438 
C14   C     0.91397172855027 0.02861664791413 0.66021572742213 
C15   C     0.47970976282698 0.76355970111441 0.90334593431391 
C16   C     0.97680193849932 0.89700983375627 0.75381486659962 
C17   C     0.52117047020272 0.84161221112583 0.82478497048512 
C18   C     0.69010609347646 0.00076146487136 0.69358769086881 
C19   C     0.81676180170442 0.06044407612767 0.63960028946613 
C20   C     0.10977001549812 0.92923355532487 0.69042312875691 
C21   C     0.05061452446957 0.06405630051601 0.59727006982009 
C22   C     0.14738848518610 0.01651912178054 0.61215968250941 
