data_stdin
_audit_creation_method 'critic2'
_audit_creation_date 2023-8-11
_chemical_formula_sum 'C22 H14'
_cell_formula_units_Z 2
_cell_length_a         8.6952741750
_cell_length_b         5.0030495154
_cell_length_c        17.3457824632
_cell_angle_alpha        93.8538
_cell_angle_beta        89.0825
_cell_angle_gamma        80.9012
_cell_volume           743.140059
_space_group_crystal_system triclinic
_space_group_IT_number 2
_space_group_name_H-M_alt 'P-1'
_space_group_name_Hall '-P 1'
loop_
_symmetry_equiv_pos_site_id
_symmetry_equiv_pos_as_xyz
 1 'x,y,z'
 2 '-x,-y,-z'
loop_
_atom_site_label
_atom_site_type_symbol
_atom_site_fract_x
_atom_site_fract_y
_atom_site_fract_z
H1    H     0.73545620062021 0.85972458929091 0.30049927005226 
H2    H     0.93438745050846 0.72602247000473 0.39458616013354 
H3    H     0.90615521938699 0.35487257066376 0.48159900014081 
H4    H     0.66380303973065 0.15258890084467 0.47898679994714 
H5    H     0.40588432043486 0.13057938986759 0.43112320983943 
H6    H     0.18221446047142 0.33175838038888 0.35570844021497 
H7    H     0.06694524982639 0.66299127942680 0.27090224010665 
H8    H     0.74882269030999 0.42789038967433 0.20707846023651 
H9    H     0.09029061995997 0.02493071990021 0.18280874006867 
H10   H     0.24831237001546 0.27833753091819 0.10949039023305 
H11   H     0.50233776020923 0.32323847897209 0.04987148975870 
H12   H     0.98254912021557 0.41468017048214 0.12604287011595 
H13   H     0.76896357033567 0.12807995980282 0.01939906985280 
H14   H     0.99994442964621 0.77043459006656 0.03367550024957 
C1    C     0.72165101029681 0.69609976094203 0.33681155984854 
C2    C     0.58643609960637 0.57159070948432 0.33028092007735 
C3    C     0.46395453005591 0.65105566976151 0.27633945972790 
C4    C     0.48026979954770 0.80433188969059 0.20977332015100 
C5    C     0.83403153041268 0.62069643110547 0.39018908026374 
C6    C     0.56406391028449 0.38011471923696 0.38561707994962 
C7    C     0.31406386005100 0.58556964918767 0.29350133024777 
C8    C     0.62390634936765 0.79714933078079 0.16495534018032 
C9    C     0.34307260055969 0.95756339929451 0.18154984001489 
C10   C     0.81696591948244 0.41583826066638 0.44007730985198 
C11   C     0.68260197011481 0.30137598046471 0.43828846028492 
C12   C     0.41901362001592 0.28233144988674 0.39042804979214 
C13   C     0.29639676955046 0.39190045968001 0.34855820986451 
C14   C     0.63010084966126 0.98761289036721 0.10736543021600 
C15   C     0.18039775005338 0.71572512983483 0.25676184008712 
C16   C     0.75422459003711 0.58891410914790 0.16867598016618 
C17   C     0.19370323003898 0.91222674906234 0.20700579994604 
C18   C     0.35450010020926 0.15016908912255 0.12543161994949 
C19   C     0.49418270960718 0.17401464070541 0.09201717980297 
C20   C     0.88592679954894 0.58008326024116 0.12239880972982 
C21   C     0.76801145022394 0.97821728984532 0.06204676998220 
C22   C     0.89511958952755 0.77936964971028 0.06955888971514 
