data_stdin
_audit_creation_method 'critic2'
_audit_creation_date 2023-8-11
_chemical_formula_sum 'C22 H14'
_cell_formula_units_Z 4
_cell_length_a        28.5902398394
_cell_length_b        10.2730033418
_cell_length_c         5.0456303609
_cell_angle_alpha        90.0006
_cell_angle_beta        89.9994
_cell_angle_gamma        89.9996
_cell_volume          1481.940132
_space_group_crystal_system orthorhombic
_space_group_IT_number 29
_space_group_name_H-M_alt 'Pca2_1'
_space_group_name_Hall 'P 2c -2ac'
loop_
_symmetry_equiv_pos_site_id
_symmetry_equiv_pos_as_xyz
 1 'x,y,z'
 2 '-x,-y,-1/2+z'
 3 '-1/2-x,y,-1/2+z'
 4 '-1/2+x,-y,z'
loop_
_atom_site_label
_atom_site_type_symbol
_atom_site_fract_x
_atom_site_fract_y
_atom_site_fract_z
H1    H     0.56059199989809 0.64388324996698 0.95352092915025 
H2    H     0.48133945002851 0.56233500029341 0.88306225098697 
H3    H     0.43328833985070 0.64339704017284 0.50250154968213 
H4    H     0.46491904997635 0.81865461044476 0.21295047022319 
H5    H     0.52503867999094 0.97778813955850 0.11033365966311 
H6    H     0.59626210013361 0.09548405006678 0.24804678067015 
H7    H     0.66059876996353 0.12508243035359 0.55615569977346 
H8    H     0.60899022011914 0.57038704031121 0.52608969975711 
H9    H     0.70729272014835 0.04815715953678 0.94389608971140 
H10   H     0.72660836001519 0.87975681034836 0.26253216977469 
H11   H     0.72675671001191 0.64800361963934 0.38931582956216 
H12   H     0.62443544017034 0.33845262989665 0.58693349061363 
H13   H     0.71087892999071 0.42372789997430 0.26545982091911 
H14   H     0.67348283011264 0.26085052965402 0.96673962956205 
C1    C     0.54066479001625 0.67939326995868 0.78519387023536 
C2    C     0.56059838995021 0.77491366020465 0.61679635000962 
C3    C     0.60665870993464 0.83020646998896 0.66203332043813 
C4    C     0.64200677001026 0.77279768038659 0.82930710974285 
C5    C     0.49567409991506 0.63406503971044 0.74647480924331 
C6    C     0.53147619004161 0.82878889030378 0.41379518977753 
C7    C     0.61609231999729 0.95438220958044 0.54877840086096 
C8    C     0.64862265013956 0.63389105989740 0.86841919065345 
C9    C     0.67521600010509 0.85727319011735 0.94953257919892 
C10   C     0.46836474995964 0.68130222010706 0.53481374095282 
C11   C     0.48603893987291 0.77756643048552 0.37216267975919 
C12   C     0.54691596999578 0.94021107980960 0.26924702086664 
C13   C     0.58656271008515 0.00445034027028 0.34441884041343 
C14   C     0.67974096006647 0.58967839990776 0.07163235925694 
C15   C     0.65420849016116 0.02997725029933 0.64484523963787 
C16   C     0.62995367987765 0.53912391967851 0.69382723084701 
C17   C     0.68039679988609 0.98689615956194 0.85463563022378 
C18   C     0.70437671010698 0.81055137035255 0.15856672077499 
C19   C     0.70489702011208 0.68209714951741 0.22710631929231 
C20   C     0.63907670007460 0.40801607954613 0.72720104939426 
C21   C     0.68763921990025 0.45458618002029 0.10612721020158 
C22   C     0.66733794016072 0.36453978967378 0.93853355951553 
