data_stdin
_audit_creation_method 'critic2'
_audit_creation_date 2023-8-11
_chemical_formula_sum 'C22 H14'
_cell_formula_units_Z 4
_cell_length_a        11.4823640219
_cell_length_b        13.0835601903
_cell_length_c        10.9879135197
_cell_angle_alpha        89.9998
_cell_angle_beta        60.2100
_cell_angle_gamma        90.0007
_cell_volume          1432.577197
_space_group_crystal_system monoclinic
_space_group_IT_number 14
_space_group_name_H-M_alt 'P2_1/c'
_space_group_name_Hall '-P 2ybc'
loop_
_symmetry_equiv_pos_site_id
_symmetry_equiv_pos_as_xyz
 1 'x,y,z'
 2 '-x,-y,-z'
 3 '-x,-1/2+y,-1/2-z'
 4 'x,-1/2-y,-1/2+z'
loop_
_atom_site_label
_atom_site_type_symbol
_atom_site_fract_x
_atom_site_fract_y
_atom_site_fract_z
H1    H     0.26967175987780 0.30413331035256 0.17314147037185 
H2    H     0.47786263993134 0.26621638029767 0.17349705988415 
H3    H     0.64352290985239 0.14106204009488 0.00043924043551 
H4    H     0.58121186993358 0.04200704029497 0.84883981985834 
H5    H     0.41607764998536 0.99050881995338 0.78461683012858 
H6    H     0.18583677016961 0.00467910036829 0.82091614032572 
H7    H     0.97152432019006 0.08515120963345 0.92305879003046 
H8    H     0.36243360949793 0.38530103989360 0.92453580046309 
H9    H     0.81347054996461 0.22118935994392 0.07222712950162 
H10   H     0.76943622984378 0.37745954986816 0.19539058031828 
H11   H     0.84640638961458 0.53560712016027 0.25984391992767 
H12   H     0.43762576007451 0.55548030969092 0.95087201030592 
H13   H     0.02860069964793 0.64606232020735 0.22460701042248 
H14   H     0.27229150019626 0.68474640034935 0.10975557988697 
C1    C     0.33903624021032 0.24916370964236 0.09840409030604 
C2    C     0.30595920941635 0.20010130035849 0.00471166037363 
C3    C     0.18342339939154 0.22142519018876 0.00077912049036 
C4    C     0.10239825979236 0.31258256974779 0.05548162029346 
C5    C     0.45703378014274 0.22769557965968 0.09848465043475 
C6    C     0.39256765981196 0.11927401007531 0.92003258965064 
C7    C     0.13705790998430 0.14320140976366 0.94485538956455 
C8    C     0.15127720024390 0.41254798985778 0.06804975014062 
C9    C     0.96510622986933 0.30659376970254 0.09095967984293 
C10   C     0.54927468028356 0.15666887983771 0.00271267981447 
C11   C     0.51598684971485 0.10248247028416 0.91639648969647 
C12   C     0.34943577977723 0.05189106998713 0.84808899998068 
C13   C     0.22301362022405 0.06028930996884 0.86710202958590 
C14   C     0.05657507005165 0.49138914992526 0.14641882037272 
C15   C     0.00424605011365 0.14611063032146 0.96659900969087 
C16   C     0.28877733973430 0.44038727985192 0.99462142978216 
C17   C     0.91810952037673 0.22183439019733 0.04650528983104 
C18   C     0.87406276972967 0.38727635003956 0.16684868971513 
C19   C     0.91657985983531 0.47467465984890 0.20033119989162 
C20   C     0.33125532967775 0.53647627966269 0.00859446004091 
C21   C     0.10252453024612 0.58813055983774 0.16233900975135 
C22   C     0.23790473014176 0.61018342020163 0.09663874958673 
