data_stdin
_audit_creation_method 'critic2'
_audit_creation_date 2023-8-11
_chemical_formula_sum 'C22 H14'
_cell_formula_units_Z 4
_cell_length_a         7.8017885624
_cell_length_b         8.0631302532
_cell_length_c        22.8421270765
_cell_angle_alpha        90.0016
_cell_angle_beta        83.7295
_cell_angle_gamma        90.0008
_cell_volume          1428.329262
_space_group_crystal_system monoclinic
_space_group_IT_number 14
_space_group_name_H-M_alt 'P2_1/c'
_space_group_name_Hall '-P 2ybc'
loop_
_symmetry_equiv_pos_site_id
_symmetry_equiv_pos_as_xyz
 1 'x,y,z'
 2 '-x,-y,-z'
 3 '-x,-1/2+y,-1/2-z'
 4 'x,-1/2-y,-1/2+z'
loop_
_atom_site_label
_atom_site_type_symbol
_atom_site_fract_x
_atom_site_fract_y
_atom_site_fract_z
H1    H     0.02259048941539 0.57788372995761 0.79690978996540 
H2    H     0.95695364943816 0.81468086948479 0.73671760009886 
H3    H     0.78128813071358 0.05142290999097 0.78173654987640 
H4    H     0.65614534026653 0.03378021043401 0.88631918992766 
H5    H     0.59699254011052 0.87553120997152 0.97757588015185 
H6    H     0.60736270021978 0.60668602946292 0.02956695991634 
H7    H     0.68875727056799 0.32020853041537 0.02979517004122 
H8    H     0.20999307987934 0.69634785012599 0.87175292004069 
H9    H     0.86181052039899 0.08294785000783 0.98522028988179 
H10   H     0.08692835028869 0.97687249994381 0.91609616993013 
H11   H     0.34697320041680 0.02221477061992 0.84492095000469 
H12   H     0.49757086051399 0.73764828938910 0.81857592016081 
H13   H     0.55885316997123 0.21096301009966 0.79767863010873 
H14   H     0.67093929976889 0.49685266056279 0.77797298991466 
C1    C     0.94707063972457 0.67930393980516 0.81740057012518 
C2    C     0.88440582986294 0.66753998972890 0.87783562986946 
C3    C     0.91433408029387 0.52305190013792 0.91330061979533 
C4    C     0.04518690998018 0.39834383036590 0.89804780983981 
C5    C     0.90994272971469 0.81333357042732 0.78338287989497 
C6    C     0.77019844971963 0.79556638040957 0.90174646020014 
C7    C     0.79650960019767 0.49661831973281 0.96455804979690 
C8    C     0.21191678981249 0.42846018058945 0.86456500985782 
C9    C     0.01495995967869 0.23603250983330 0.92153336017972 
C10   C     0.80845478954399 0.94506786026723 0.80857106993546 
C11   C     0.73916197003484 0.93524366946452 0.86669606985468 
C12   C     0.67970406051590 0.77540485035128 0.95901259008536 
C13   C     0.68641172011299 0.62773712968369 0.98791500009790 
C14   C     0.31956243982026 0.29042809946067 0.84544591017912 
C15   C     0.78344658049014 0.33752871986388 0.99162848982357 
C16   C     0.28343382003966 0.58918099951568 0.85464736994494 
C17   C     0.88036257974684 0.20806523030257 0.96770863993163 
C18   C     0.12307223038232 0.10096505020255 0.90047742995318 
C19   C     0.26644831005053 0.12590522986835 0.86168519009377 
C20   C     0.44527565993786 0.61301942006291 0.82466063005365 
C21   C     0.48237014020548 0.31833377018717 0.81310873009950 
C22   C     0.54473484032300 0.47662908052046 0.80225232009384 
