data_stdin
_audit_creation_method 'critic2'
_audit_creation_date 2023-8-11
_chemical_formula_sum 'C22 H14'
_cell_formula_units_Z 4
_cell_length_a        10.7194180786
_cell_length_b        15.2215710201
_cell_length_c         9.9049473027
_cell_angle_alpha        89.9990
_cell_angle_beta        62.7542
_cell_angle_gamma        90.0017
_cell_volume          1436.843030
_space_group_crystal_system monoclinic
_space_group_IT_number 14
_space_group_name_H-M_alt 'P2_1/c'
_space_group_name_Hall '-P 2ybc'
loop_
_symmetry_equiv_pos_site_id
_symmetry_equiv_pos_as_xyz
 1 'x,y,z'
 2 '-x,-y,-z'
 3 '-x,-1/2+y,-1/2-z'
 4 'x,-1/2-y,-1/2+z'
loop_
_atom_site_label
_atom_site_type_symbol
_atom_site_fract_x
_atom_site_fract_y
_atom_site_fract_z
H1    H     0.27164080978965 0.31376022021088 0.68115830002698 
H2    H     0.48767479043802 0.25473559981754 0.67097330981499 
H3    H     0.60112648953651 0.12121944974222 0.51422977055447 
H4    H     0.48004311966746 0.04114830023332 0.38974335010366 
H5    H     0.27281434952409 0.01965121014978 0.34720718029228 
H6    H     0.02982017966598 0.06181054023146 0.41085152972706 
H7    H     0.82997063955813 0.15550967003386 0.53729731996109 
H8    H     0.34791206024994 0.35832852022215 0.39469123946732 
H9    H     0.72088467010041 0.29241130021585 0.68306612045401 
H10   H     0.74400558965764 0.43736323030874 0.76178450042447 
H11   H     0.88949201026255 0.56287662005295 0.76308245960089 
H12   H     0.48767565955541 0.49098601968101 0.36474258030621 
H13   H     0.11836937999988 0.63011951992243 0.67513216944603 
H14   H     0.37690754988729 0.62622855006912 0.51425736993974 
C1    C     0.31860803966002 0.25578385012104 0.61290313031154 
C2    C     0.25123335984693 0.21492614014568 0.53523334024674 
C3    C     0.12086329954246 0.24769385968877 0.54261448017976 
C4    C     0.06659740991212 0.33566031030626 0.58753760995641 
C5    C     0.44089033005534 0.22233501996358 0.60700203946280 
C6    C     0.30777330990949 0.13311349999316 0.46046850028818 
C7    C     0.03647827961394 0.18623683006498 0.51278285012645 
C8    C     0.15237152974267 0.41351932024597 0.56394620013304 
C9    C     0.91895616993593 0.34807681032286 0.64913359022365 
C10   C     0.50307594983593 0.14625908002313 0.52138442021215 
C11   C     0.43642400980836 0.10216725983254 0.45069920993386 
C12   C     0.22876174026986 0.08094930028359 0.40701782035667 
C13   C     0.09476626971272 0.10464261976147 0.44048825961592 
C14   C     0.08685563977432 0.49455946023669 0.63414759970060 
C15   C     0.89228592956267 0.20467022992952 0.55932743016570 
C16   C     0.29762822020535 0.41611168002460 0.46180938017192 
C17   C     0.83307191012190 0.28024655013473 0.63689815990419 
C18   C     0.85726228977266 0.43043661030613 0.71465130968269 
C19   C     0.93770462983397 0.50035897027745 0.71293402995416 
C20   C     0.37609738012886 0.49127044999174 0.44333457042815 
C21   C     0.17020793034433 0.56985393985467 0.61767458976595 
C22   C     0.31340572011361 0.56808595974959 0.52628461999717 
