data_stdin
_audit_creation_method 'critic2'
_audit_creation_date 2023-8-11
_chemical_formula_sum 'C22 H14'
_cell_formula_units_Z 4
_cell_length_a        32.3838165576
_cell_length_b         8.7327707834
_cell_length_c         5.1825536997
_cell_angle_alpha        90.0006
_cell_angle_beta        90.0118
_cell_angle_gamma        90.0019
_cell_volume          1465.628471
_space_group_crystal_system monoclinic
_space_group_IT_number 4
_space_group_name_H-M_alt 'P2_1'
_space_group_name_Hall 'P 2yb'
loop_
_symmetry_equiv_pos_site_id
_symmetry_equiv_pos_as_xyz
 1 'x,y,z'
 2 '-x,-1/2+y,-1/2-z'
loop_
_atom_site_label
_atom_site_type_symbol
_atom_site_fract_x
_atom_site_fract_y
_atom_site_fract_z
H1    H     0.64976832010419 0.76641997988053 0.71273399904129 
H2    H     0.14978918991265 0.73358937983064 0.28726256088141 
H3    H     0.69259875995600 0.53985568993159 0.77787281012407 
H4    H     0.19261105995098 0.96015711977368 0.22204882022477 
H5    H     0.73926128008319 0.52002716990193 0.16129035961192 
H6    H     0.23924849006702 0.97995427032973 0.83862546945169 
H7    H     0.74539766000362 0.74275727011065 0.46034092940526 
H8    H     0.24536975989116 0.75718522040529 0.53966788933824 
H9    H     0.72803014998793 0.00177345959465 0.58046197971623 
H10   H     0.22800992990780 0.49812694977220 0.41969215056800 
H11   H     0.69539486014257 0.24892875018967 0.46720191027212 
H12   H     0.19538607999829 0.25098016050529 0.53305561056854 
H13   H     0.65446077009339 0.40304103015346 0.17977117979746 
H14   H     0.15446052000162 0.09690978026207 0.82045385074155 
H15   H     0.59727293013963 0.76149700038421 0.10107469963627 
H16   H     0.09727807991098 0.73848545028456 0.89895082959335 
H17   H     0.60930580998590 0.42763281978077 0.79458680979298 
H18   H     0.10931661999987 0.07235288037397 0.20557406993752 
H19   H     0.56810479993316 0.31233029971997 0.45936128025700 
H20   H     0.06811763990014 0.18766443012986 0.54063871974447 
H21   H     0.53257603004965 0.08646868968885 0.27281017030461 
H22   H     0.03259763010048 0.41353319043244 0.72712078087589 
H23   H     0.54842494998726 0.55917397011407 0.98036674001605 
H24   H     0.04844461988944 0.94082897026112 0.01960483052974 
H25   H     0.50826639000833 0.82493655982156 0.32807321938475 
H26   H     0.00829987985910 0.67507859955431 0.67184030010206 
H27   H     0.50506984992955 0.58418035974920 0.58708270985415 
H28   H     0.00510497009736 0.91584194052059 0.41286333916285 
C1    C     0.66917037006014 0.75978486048799 0.88312189927502 
C2    C     0.16918023007535 0.74020684046740 0.11687598943014 
C3    C     0.66965471985648 0.88374560012909 0.05958719047467 
C4    C     0.16965526014631 0.61622181026873 0.94046162078457 
C5    C     0.64509322011472 0.02141846960893 0.02377501038575 
C6    C     0.14509650985252 0.47854818998726 0.97631592932420 
C7    C     0.61039256004035 0.03468041981831 0.85011916034350 
C8    C     0.11040214991705 0.46530082011570 0.14993363921839 
C9    C     0.69381148996612 0.63242250957364 0.91835948910759 
C10   C     0.19381675985656 0.86757301042856 0.08159622999428 
C11   C     0.69925882005449 0.87775784050684 0.26466416912273 
C12   C     0.19924743990821 0.62219083017345 0.73539392910310 
C13   C     0.65845103010849 0.15578650013864 0.15515321072806 
C14   C     0.15845082004178 0.34416603949949 0.84500323025281 
C15   C     0.58299128992938 0.90992981029980 0.77822029982993 
C16   C     0.08300532992816 0.59005679965830 0.22178774975247 
C17   C     0.60054762996975 0.18271621956117 0.75244788039267 
C18   C     0.10055822007309 0.31727091943952 0.24761693050706 
C19   C     0.72051090986910 0.62212463051745 0.13257804067882 
C20   C     0.22050179014947 0.87785395016037 0.86737568008454 
C21   C     0.72352671010801 0.74435988055746 0.30044591935758 
C22   C     0.22350936006108 0.75559520966576 0.69956084990732 
C23   C     0.70622511994837 0.00958988041925 0.42127498075529 
C24   C     0.20621100007391 0.49033384985992 0.57885879938256 
C25   C     0.68787278987333 0.14540553005100 0.35973735003152 
C26   C     0.18786531989197 0.35452134026667 0.64045255022541 
C27   C     0.55524403001386 0.92962851025592 0.56553812970484 
C28   C     0.05526408997569 0.57036727009397 0.43443096052159 
C29   C     0.64349867998777 0.30182383048132 0.07791039944325 
C30   C     0.14350161987701 0.19813593981005 0.92226771952196 
C31   C     0.57906014013958 0.77421472004817 0.92639570915346 
C32   C     0.07907228986279 0.72577307985655 0.07361008079507 
C33   C     0.61800505987733 0.31534408969211 0.86840139048137 
C34   C     0.11801333999624 0.18463423023706 0.13173663094690 
C35   C     0.57269653994652 0.19846866043807 0.54039016952869 
C36   C     0.07270992009085 0.30152462981014 0.45961677042643 
C37   C     0.55273154985068 0.07460547045230 0.43955015080631 
C38   C     0.05274943001848 0.42539183011599 0.56041422031432 
C39   C     0.55149477005674 0.66020840042935 0.85872852913416 
C40   C     0.05151412007873 0.83979244056124 0.14124519040912 
C41   C     0.52831949001357 0.80869681018431 0.49474084066427 
C42   C     0.02834737012495 0.69131057039626 0.50519788956517 
C43   C     0.52658837986843 0.67526749036814 0.63716319987199 
C44   C     0.02661667989670 0.82474519956492 0.36278651085089 
