data_stdin
_audit_creation_method 'critic2'
_audit_creation_date 2023-8-11
_chemical_formula_sum 'C22 H14'
_cell_formula_units_Z 2
_cell_length_a         6.3788032294
_cell_length_b        11.3654438359
_cell_length_c        10.3733058304
_cell_angle_alpha        72.3011
_cell_angle_beta        74.7875
_cell_angle_gamma        83.5504
_cell_volume           690.908780
_space_group_crystal_system triclinic
_space_group_IT_number 2
_space_group_name_H-M_alt 'P-1'
_space_group_name_Hall '-P 1'
loop_
_symmetry_equiv_pos_site_id
_symmetry_equiv_pos_as_xyz
 1 'x,y,z'
 2 '-x,-y,-z'
loop_
_atom_site_label
_atom_site_type_symbol
_atom_site_fract_x
_atom_site_fract_y
_atom_site_fract_z
H1    H     0.56088310925803 0.56601672996732 0.34091678029668 
H2    H     0.72600124018092 0.40071562002365 0.50444892985326 
H3    H     0.12398610007907 0.35427613018309 0.44726457950474 
H4    H     0.34741963915195 0.45450982948496 0.21094541046489 
H5    H     0.36595978946976 0.57857706999179 0.97042663992296 
H6    H     0.17473759025997 0.70061496987347 0.79065390987631 
H7    H     0.85760949934703 0.81176115987337 0.72545631050898 
H8    H     0.77713795946045 0.75891789003114 0.32680720959811 
H9    H     0.47779319022500 0.89314697038976 0.78894390972875 
H10   H     0.16327038981573 0.92765877031900 0.95983487047201 
H11   H     0.98589743070212 0.93560209985498 0.20009564961977 
H12   H     0.62845273941126 0.81725714947200 0.54320155040412 
H13   H     0.01857237002327 0.92614268992674 0.42928874950452 
H14   H     0.24451744987216 0.89558052963146 0.60049534984556 
C1    C     0.73451241967330 0.54513247009904 0.31365056977869 
C2    C     0.86056200920367 0.61144378950852 0.18236506045778 
C3    C     0.76908209080830 0.70871341046471 0.08272580948619 
C4    C     0.57098581958201 0.77966602978879 0.11756227024550 
C5    C     0.82666459035971 0.45233873986167 0.40554222959952 
C6    C     0.08192974988905 0.57034822997990 0.14209087990985 
C7    C     0.87877001968350 0.73018677975812 0.93937554994053 
C8    C     0.48391554933219 0.80559761022251 0.25123143960475 
C9    C     0.46089596084271 0.83798256051482 0.01022059946392 
C10   C     0.05133737990975 0.42357276009779 0.37173358009432 
C11   C     0.17610878015703 0.48096290018952 0.24139081036170 
C12   C     0.19795765067110 0.61088557984152 0.99981626016098 
C13   C     0.09427489960093 0.68082440969636 0.90104273047923 
C14   C     0.26938833037010 0.85995479001464 0.28037200049745 
C15   C     0.77213376956348 0.79951133955889 0.83410597037591 
C16   C     0.60963526038754 0.79315579037006 0.34934152978871 
C17   C     0.56394685973590 0.84497733997820 0.86900906028653 
C18   C     0.24757013018083 0.89163231001358 0.04316256031079 
C19   C     0.15000571070791 0.89637121996258 0.17515756002571 
C20   C     0.52612952973282 0.82608850956319 0.47137205005733 
C21   C     0.18419316033170 0.88752480994537 0.40891323994868 
C22   C     0.30969607068224 0.87131300054044 0.50342751952136 
