data_stdin
_audit_creation_method 'critic2'
_audit_creation_date 2023-8-11
_chemical_formula_sum 'C22 H14'
_cell_formula_units_Z 4
_cell_length_a        16.0869256006
_cell_length_b        16.8827970406
_cell_length_c         5.2559661138
_cell_angle_alpha        90.0003
_cell_angle_beta        89.9980
_cell_angle_gamma        89.9991
_cell_volume          1427.479924
_space_group_crystal_system orthorhombic
_space_group_IT_number 19
_space_group_name_H-M_alt 'P2_12_12_1'
_space_group_name_Hall 'P 2ac 2ab'
loop_
_symmetry_equiv_pos_site_id
_symmetry_equiv_pos_as_xyz
 1 'x,y,z'
 2 '-x,-1/2+y,-1/2-z'
 3 '-1/2-x,-y,-1/2+z'
 4 '-1/2+x,-1/2-y,-z'
loop_
_atom_site_label
_atom_site_type_symbol
_atom_site_fract_x
_atom_site_fract_y
_atom_site_fract_z
H1    H     0.39723681999962 0.63860699984665 0.56591653050741 
H2    H     0.49285134995728 0.53030063008444 0.66546055033846 
H3    H     0.58015634024670 0.53463641994632 0.05881934022059 
H4    H     0.57799285989130 0.65560583018470 0.33010459952443 
H5    H     0.53456196989525 0.79145559986597 0.40102580078465 
H6    H     0.46257105977409 0.91111944989936 0.24568741989758 
H7    H     0.37282931986286 0.97654116993814 0.94233936093970 
H8    H     0.29009698026762 0.63500042987516 0.95707402987830 
H9    H     0.27897083971177 0.97120244995962 0.56531403953992 
H10   H     0.20178268979002 0.89588250976270 0.25301936960012 
H11   H     0.14096481980902 0.76957653016500 0.10735244998072 
H12   H     0.20315811977809 0.51938068001557 0.86973561987921 
H13   H     0.10697316983218 0.63226511003968 0.19612271980825 
H14   H     0.11456358003005 0.51434309012992 0.47966456061727 
C1    C     0.43410701001855 0.64163984970748 0.73865703033959 
C2    C     0.42726035970856 0.70903435995345 0.89799685924998 
C3    C     0.37220085006436 0.77504087004316 0.84217637975565 
C4    C     0.30206361028903 0.77129815987154 0.67161133995269 
C5    C     0.48846155001394 0.58063873006284 0.79441604066567 
C6    C     0.48394586012507 0.71492855974218 0.10708635972755 
C7    C     0.39263535004959 0.84962236996794 0.95258309037229 
C8    C     0.25340699003969 0.70046916983784 0.62068714965673 
C9    C     0.27459079991142 0.84304832992170 0.55649938082659 
C10   C     0.53842869017282 0.58355530028053 0.01464184914876 
C11   C     0.53672844009538 0.65025490005692 0.16661286004604 
C12   C     0.49176950008858 0.78797256017950 0.24126625962338 
C13   C     0.45120732022555 0.85388532984134 0.15635668039574 
C14   C     0.19633413008235 0.70022141006666 0.41159616075897 
C15   C     0.35560790969225 0.92007539001001 0.85661713046460 
C16   C     0.25267902002312 0.63395146000388 0.78517392010546 
C17   C     0.30292003987059 0.91712417998860 0.65201446973593 
C18   C     0.21726132014697 0.84067880022633 0.34919597071520 
C19   C     0.18298903993524 0.77103310994981 0.26939660021351 
C20   C     0.20302417997649 0.56884184011342 0.73678538079327 
C21   C     0.14855135007082 0.63153951013728 0.35992938949831 
C22   C     0.15212839022696 0.56650458024600 0.51881414919684 
