data_stdin
_audit_creation_method 'critic2'
_audit_creation_date 2023-8-11
_chemical_formula_sum 'C22 H14'
_cell_formula_units_Z 4
_cell_length_a         8.7853285342
_cell_length_b        10.5138097400
_cell_length_c        16.0616184800
_cell_angle_alpha        90.0000
_cell_angle_beta        90.0019
_cell_angle_gamma        90.0000
_cell_volume          1483.567894
_space_group_crystal_system orthorhombic
_space_group_IT_number 19
_space_group_name_H-M_alt 'P2_12_12_1'
_space_group_name_Hall 'P 2ac 2ab'
loop_
_symmetry_equiv_pos_site_id
_symmetry_equiv_pos_as_xyz
 1 'x,y,z'
 2 '-1/2-x,-y,-1/2+z'
 3 '-1/2+x,-1/2-y,-z'
 4 '-x,-1/2+y,-1/2-z'
loop_
_atom_site_label
_atom_site_type_symbol
_atom_site_fract_x
_atom_site_fract_y
_atom_site_fract_z
H1    H     0.99410922014713 0.51200235008596 0.70676216969327 
H2    H     0.76324066966298 0.50688747023366 0.79116943979849 
H3    H     0.72667205051577 0.66313874986292 0.90790127009724 
H4    H     0.93569344006575 0.81184280018422 0.94367661005827 
H5    H     0.19757167965157 0.88396632045423 0.92582109969396 
H6    H     0.45067775998578 0.85317683027907 0.85908088994147 
H7    H     0.61140814008673 0.75316698953185 0.75733220003114 
H8    H     0.97339639965738 0.74348435046842 0.63883607995340 
H9    H     0.64446144952236 0.61031581016121 0.63578856002927 
H10   H     0.53901855009837 0.49706803011896 0.51844775971266 
H11   H     0.32145301050955 0.44139510963779 0.42853291001781 
H12   H     0.77474913980394 0.72536912989190 0.53291763024419 
H13   H     0.05932906979547 0.47739222980682 0.38766549025542 
H14   H     0.81056594001202 0.58726324036077 0.40912872976177 
C1    C     0.98054414963445 0.58091403041121 0.75661221976867 
C2    C     0.09734407987276 0.67108929033875 0.77154648991778 
C3    C     0.23571067977446 0.67665221998089 0.72218824988228 
C4    C     0.25277994999156 0.62397007979952 0.63966299971692 
C5    C     0.85055450025269 0.57733802025581 0.80498716004892 
C6    C     0.08292522987264 0.75059686028741 0.84354268020569 
C7    C     0.36587756049104 0.73240317998985 0.76039705015822 
C8    C     0.13022617007520 0.61256376980984 0.57928125010798 
C9    C     0.40232545049800 0.59196906040806 0.61247710971506 
C10   C     0.83066289030041 0.66441413990360 0.87096844004248 
C11   C     0.94621054015840 0.74834947026688 0.89042250997569 
C12   C     0.21081906991820 0.82293442031981 0.87141735981474 
C13   C     0.34931577983828 0.80753104984431 0.83399437027286 
C14   C     0.15572647027688 0.54285061981449 0.50383509993281 
C15   C     0.51323057006123 0.71116875041044 0.72639977994452 
C16   C     0.99098546004286 0.67984366970810 0.58644709000876 
C17   C     0.53123380995061 0.63426405004107 0.65840793997857 
C18   C     0.42370242986896 0.52342460984046 0.53655206976100 
C19   C     0.30381551963759 0.49420912022387 0.48596456980077 
C20   C     0.87866122049105 0.66997665962404 0.52660023978725 
C21   C     0.03725584946156 0.53156156004343 0.44430301025788 
C22   C     0.89985714015988 0.59287563986079 0.45588574026007 
