data_stdin
_audit_creation_method 'critic2'
_audit_creation_date 2023-8-11
_chemical_formula_sum 'C22 H14'
_cell_formula_units_Z 8
_cell_length_a        10.0613275640
_cell_length_b         8.6401155622
_cell_length_c        33.6569632476
_cell_angle_alpha        89.9822
_cell_angle_beta        89.9944
_cell_angle_gamma        89.9999
_cell_volume          2925.834424
_space_group_crystal_system monoclinic
_space_group_IT_number 14
_space_group_name_H-M_alt 'P2_1/c'
_space_group_name_Hall '-P 2ybc'
loop_
_symmetry_equiv_pos_site_id
_symmetry_equiv_pos_as_xyz
 1 'x,y,z'
 2 '-x,-y,-z'
 3 '-1/2+x,-1/2-y,-z'
 4 '-1/2-x,-1/2+y,z'
loop_
_atom_site_label
_atom_site_type_symbol
_atom_site_fract_x
_atom_site_fract_y
_atom_site_fract_z
H1    H     0.61138735956993 0.42440105042161 0.91802682008072 
H2    H     0.38855614950583 0.92474236046428 0.58198575993120 
H3    H     0.62712130996716 0.42268803977568 0.99064457005968 
H4    H     0.37260855010526 0.92302912033656 0.50937372012966 
H5    H     0.49934572988290 0.22919508048931 0.03061513008327 
H6    H     0.50025647987032 0.72952101990989 0.46940459012389 
H7    H     0.33817584976725 0.05764888957102 0.99672872999675 
H8    H     0.66151917997347 0.55797308057020 0.50327581986637 
H9    H     0.21276299012551 0.98483248952223 0.93718869999726 
H10   H     0.78707269966857 0.48514619006659 0.56279811007284 
H11   H     0.15787959964351 0.03564606013608 0.86666744987913 
H12   H     0.84213277014109 0.53588840962174 0.63330307999431 
H13   H     0.19563137952514 0.17113942043851 0.80545147008492 
H14   H     0.80440035967591 0.67125363005478 0.69454018986379 
H15   H     0.69932159034810 0.15227669043547 0.89679036995731 
H16   H     0.30065469015529 0.65257948994830 0.60323387012824 
H17   H     0.33036583973217 0.35091292017130 0.76420612008345 
H18   H     0.66969970039346 0.85098448004419 0.73577874986885 
H19   H     0.52731031974637 0.51049090955435 0.75514234998959 
H20   H     0.47276998968747 0.01054424051403 0.74485140009379 
H21   H     0.75819869007238 0.57680294000609 0.77372839995752 
H22   H     0.24187556998934 0.07684417975136 0.72628899008173 
H23   H     0.94137965973597 0.17241489984352 0.90462525000781 
H24   H     0.05859540954438 0.67266918995982 0.59542433990222 
H25   H     0.95866575955836 0.50675339001950 0.81040135994191 
H26   H     0.04137011041314 0.00681395001034 0.68964056999022 
H27   H     0.07211008967339 0.35591194988697 0.86303971999524 
H28   H     0.92786740955875 0.85602674956633 0.63702621013358 
C1    C     0.55248532027623 0.34205012981885 0.93487134000089 
C2    C     0.44739098974556 0.84237904998142 0.56513865011290 
C3    C     0.46578870035576 0.24044569035859 0.91434761995712 
C4    C     0.53412391024317 0.74074335027038 0.58565936993069 
C5    C     0.44956135993307 0.24349450985259 0.87146866002710 
C6    C     0.55042106958727 0.74373812039485 0.62853377996259 
C7    C     0.54241652959346 0.31334897995823 0.84404753012321 
C8    C     0.45759493987446 0.81355278952502 0.65595873995641 
C9    C     0.56239087022705 0.34024356055968 0.97581724988642 
C10   C     0.43736934029793 0.84056842018813 0.52419728993901 
C11   C     0.38120243966474 0.14332570022521 0.93780991992599 
C12   C     0.61864717983810 0.64362179993936 0.56219735985913 
C13   C     0.32876373990807 0.18226392978501 0.85594518000840 
C14   C     0.67123224974125 0.68247314959728 0.64404825001117 
C15   C     0.68502686004415 0.32511706033929 0.85035934007915 
C16   C     0.31498080039967 0.82531633992315 0.64965877012570 
C17   C     0.49248459042795 0.36419356973921 0.80660585994851 
C18   C     0.50756749045898 0.86433709942474 0.69339052001121 
C19   C     0.48797257016147 0.23401237974323 0.99846963009336 
C20   C     0.51171356976758 0.73430771988282 0.50154274987350 
C21   C     0.39847265983989 0.13800628048558 0.97955367997393 
C22   C     0.60126211982215 0.63830681952468 0.52045640989403 
C23   C     0.27457382020598 0.06153090027069 0.91930934998394 
C24   C     0.72531328988256 0.56182274995161 0.58068706986957 
C25   C     0.24523501005293 0.08783677943913 0.88026704991279 
C26   C     0.75473315993401 0.58809320991998 0.61972277003400 
C27   C     0.76264525011369 0.42006628946380 0.82431542998645 
C28   C     0.23737760964295 0.92020296963759 0.67570624003268 
C29   C     0.28964919975119 0.21722621055862 0.81632273993739 
C30   C     0.71038555958208 0.71736632042678 0.68366719009638 
C31   C     0.75426012967010 0.23441595014621 0.87870139007303 
C32   C     0.24572200031608 0.73466190967031 0.62132680990804 
C33   C     0.36484703009968 0.31482670033522 0.79344279992321 
C34   C     0.63521454001963 0.81493958047618 0.70654570991194 
C35   C     0.57175801047735 0.46253884050748 0.78197144011739 
C36   C     0.42831359982108 0.96262712968863 0.71802786993111 
C37   C     0.70009102046060 0.49675996014086 0.79174638005766 
C38   C     0.29996369031349 0.99684632965822 0.70826582996168 
C39   C     0.89059862001539 0.24491103024541 0.88294788012749 
C40   C     0.10937729995208 0.74513351042409 0.61709603006760 
C41   C     0.90174219006197 0.43079596055428 0.82982863987883 
C42   C     0.09827663006643 0.93090529951282 0.67020863010561 
C43   C     0.96523355003262 0.34621588046841 0.85896489013528 
C44   C     0.03475346966101 0.84636428945075 0.64108530988495 
