data_stdin
_audit_creation_method 'critic2'
_audit_creation_date 2023-8-11
_chemical_formula_sum 'C34 H20'
_cell_formula_units_Z 4
_cell_length_a         9.6190701176
_cell_length_b        15.5393275700
_cell_length_c        15.4410338944
_cell_angle_alpha        90.0001
_cell_angle_beta        72.8185
_cell_angle_gamma        89.9999
_cell_volume          2205.032284
_space_group_crystal_system monoclinic
_space_group_IT_number 14
_space_group_name_H-M_alt 'P2_1/c'
_space_group_name_Hall '-P 2ybc'
loop_
_symmetry_equiv_pos_site_id
_symmetry_equiv_pos_as_xyz
 1 'x,y,z'
 2 '-x,-y,-z'
 3 '-x,-1/2+y,-1/2-z'
 4 'x,-1/2-y,-1/2+z'
loop_
_atom_site_label
_atom_site_type_symbol
_atom_site_fract_x
_atom_site_fract_y
_atom_site_fract_z
C1    C     0.30064181804112 0.36604775715440 0.25464427027456 
C2    C     0.27691123582161 0.35404661650209 0.35070172777319 
C3    C     0.44228168915066 0.36588620279860 0.18721394363781 
C4    C     0.37892732102759 0.37804377049269 0.39933061248184 
C5    C     0.56837246202529 0.33139119807005 0.20375906565663 
C6    C     0.49357425015480 0.44154111254547 0.36894146420109 
C7    C     0.49476027515490 0.51195686275384 0.30730715163325 
C8    C     0.17635258540778 0.37340490249996 0.22309556850266 
C9    C     0.14083144435222 0.31801730904067 0.40194733384693 
C10   C     0.45433737759716 0.39338981364195 0.09685197790217 
C11   C     0.36522480669269 0.33609547072814 0.48371710342860 
C12   C     0.70084105057169 0.32924043424704 0.13704133169609 
C13   C     0.61589181807370 0.43342810247845 0.40284806937941 
C14   C     0.36549172964363 0.55271003067553 0.29594628996815 
C15   C     0.63139825876308 0.54922779084465 0.26022233821196 
C16   C     0.03701829044646 0.34832464183924 0.28002840168861 
C17   C     0.02246250294522 0.31500689951198 0.36432850574108 
C18   C     0.19220800660924 0.40289848905362 0.13307997184544 
C19   C     0.12264387654138 0.28713453364912 0.49146480950995 
C20   C     0.32646878982651 0.41580616159169 0.07291394782158 
C21   C     0.23489430091576 0.29122704019193 0.52873581845986 
C22   C     0.59214351212351 0.39313345986435 0.03047144101665 
C23   C     0.48192076236448 0.33821266108284 0.52283548636322 
C24   C     0.71422933034349 0.36262418589618 0.05012309091098 
C25   C     0.60800864250373 0.38005292347777 0.47915758577376 
C26   C     0.37976540610009 0.61375877779382 0.22435772406188 
C27   C     0.74687080778534 0.47850410891258 0.36026971000447 
C28   C     0.22509210708926 0.54211115857093 0.35827303328590 
C29   C     0.75767856909625 0.52925253173959 0.28629305564719 
C30   C     0.64186002079663 0.61031145828233 0.18949509051618 
C31   C     0.52094758864857 0.63872979983403 0.16923851891338 
C32   C     0.10479230338122 0.58412946583722 0.34740866906803 
C33   C     0.25418878723656 0.65404093191535 0.21288810403459 
C34   C     0.11819402425786 0.63920396087946 0.27285789272270 
H1    H     0.56007432519172 0.30393348690097 0.26962939228982 
H2    H     0.79395919758990 0.29996650796012 0.15209183493001 
H3    H     0.94369697773177 0.35315664768933 0.25399792968871 
H4    H     0.91845898510032 0.28954863229036 0.40580283399002 
H5    H     0.09392231069857 0.41324545538977 0.11298958418869 
H6    H     0.01845642041134 0.25890001382031 0.52875671427904 
H7    H     0.33788443046098 0.43788398607541 0.00428519387494 
H8    H     0.22534465722682 0.26307385880879 0.59471977606679 
H9    H     0.59963820299711 0.41596668707955 0.96267014878326 
H10   H     0.47087389946864 0.30341221030623 0.58573812413524 
H11   H     0.81918662127720 0.36259405465495 0.99789259069088 
H12   H     0.70159092629410 0.37695992547556 0.50506329271663 
H13   H     0.83992939122832 0.46888620993884 0.38560689935642 
H14   H     0.21200622557571 0.50119903061121 0.41713035636272 
H15   H     0.86084152146521 0.55900118729369 0.24968070427329 
H16   H     0.74902583186405 0.63500439908679 0.15252399310426 
H17   H     0.53033174811320 0.68477411770834 0.11460218720283 
H18   H     0.99930776505946 0.57595303877539 0.39768753792005 
H19   H     0.26827039150705 0.69949011193692 0.15709991846011 
H20   H     0.02312741049790 0.67218429743461 0.26437896726611 
