data_stdin
_audit_creation_method 'critic2'
_audit_creation_date 2023-8-11
_chemical_formula_sum 'C34 H20'
_cell_formula_units_Z 8
_cell_length_a        16.9375299124
_cell_length_b         9.8571270212
_cell_length_c        26.6766293959
_cell_angle_alpha        89.9993
_cell_angle_beta        82.0699
_cell_angle_gamma        89.9994
_cell_volume          4411.215454
_space_group_crystal_system monoclinic
_space_group_IT_number 15
_space_group_name_H-M_alt 'C2/c'
_space_group_name_Hall '-C 2yc'
loop_
_symmetry_equiv_pos_site_id
_symmetry_equiv_pos_as_xyz
 1 'x,y,z'
 2 '-x,-y,-z'
 3 '-x,y,-1/2-z'
 4 '-1/2+x,-1/2-y,-1/2+z'
 5 '-1/2+x,-1/2+y,z'
 6 '-1/2-x,-1/2-y,-z'
 7 '-1/2-x,-1/2+y,-1/2-z'
 8 'x,-y,-1/2+z'
loop_
_atom_site_label
_atom_site_type_symbol
_atom_site_fract_x
_atom_site_fract_y
_atom_site_fract_z
C1    C     0.33073069673884 0.66832336600618 0.57954462483189 
C2    C     0.34039997864738 0.80184268491042 0.60025234038079 
C3    C     0.25823735941664 0.62018217559070 0.56209765619865 
C4    C     0.27607719769292 0.88591016632116 0.62462198774257 
C5    C     0.19706968080520 0.70795239800500 0.55038192789311 
C6    C     0.19957955597708 0.83596667427664 0.64869096962019 
C7    C     0.18513958503406 0.70215530685721 0.67013463043841 
C8    C     0.39835198869567 0.58108758299480 0.57221592147135 
C9    C     0.41935834987477 0.85492683861773 0.59725103348411 
C10   C     0.25097923332025 0.47932286631024 0.55070264987145 
C11   C     0.28889968435731 0.02880154136764 0.62505833147199 
C12   C     0.13035313853654 0.65901870933200 0.53181760087604 
C13   C     0.13356363580167 0.92681708282624 0.65106082468178 
C14   C     0.24573870661568 0.61751390494571 0.68791122809711 
C15   C     0.10533282110511 0.65291056383432 0.67763940102179 
C16   C     0.47573945806051 0.63293540338083 0.57587903151593 
C17   C     0.48626449204579 0.76778867077569 0.58515566635326 
C18   C     0.38932876362564 0.44129035040489 0.56009532812770 
C19   C     0.43158764610546 0.99539972025060 0.60626778819675 
C20   C     0.31702741091170 0.39040431290069 0.55246298301943 
C21   C     0.36794715008520 0.08131184967945 0.61604475473267 
C22   C     0.18065500212869 0.43084387282162 0.53363589288655 
C23   C     0.22268071858452 0.11877853194856 0.63451430427599 
C24   C     0.12104012413834 0.51886183591525 0.52427364958784 
C25   C     0.14684998101520 0.06840216794884 0.64305946964908 
C26   C     0.22821921204047 0.47815520636359 0.69971271957026 
C27   C     0.05440575801591 0.87668816233021 0.66244216338167 
C28   C     0.31973899485018 0.66854845190054 0.69882701735321 
C29   C     0.04078125089097 0.74197146099467 0.67254845524841 
C30   C     0.08925059679182 0.51437904580125 0.69126216807581 
C31   C     0.14922391086526 0.42796106345870 0.69928173330494 
C32   C     0.37552890588671 0.58497287242469 0.71628280300222 
C33   C     0.28771637529808 0.39333084769303 0.71539844764998 
C34   C     0.36061287670942 0.44518777002344 0.72328355007679 
H1    H     0.20421026555745 0.81671617820901 0.55398491013992 
H2    H     0.08576281255004 0.72976771644619 0.52170764316249 
H3    H     0.52661242903280 0.56451987962802 0.56883689624347 
H4    H     0.54564762427004 0.81050971950087 0.58470058939636 
H5    H     0.44178952925497 0.37616450204893 0.55733857775864 
H6    H     0.49246879191756 0.03340804265252 0.60282930977800 
H7    H     0.30975634425814 0.28295163751543 0.54482133310252 
H8    H     0.37630530638698 0.19043632501112 0.61911333399617 
H9    H     0.17577240379698 0.32249908184811 0.52657246317629 
H10   H     0.23368977562259 0.22761178689763 0.63281627560438 
H11   H     0.06853298431160 0.48073899061742 0.50950006903114 
H12   H     0.09538993964271 0.13575102778968 0.64651648644039 
H13   H     0.00499628350600 0.94724845380971 0.66216831075946 
H14   H     0.33206658152470 0.77631440417619 0.69471569729722 
H15   H     0.98029837391820 0.70197227559364 0.67942408696568 
H16   H     0.02766473444559 0.47943108889619 0.69477127610545 
H17   H     0.13726632529244 0.32156643358061 0.70842626426312 
H18   H     0.43125603819058 0.62814689424507 0.72509328758505 
H19   H     0.27367690758283 0.28692749072660 0.72313524940274 
H20   H     0.40487358299394 0.37979788549223 0.73685649338431 
