data_stdin
_audit_creation_method 'critic2'
_audit_creation_date 2023-8-11
_chemical_formula_sum 'C34 H20'
_cell_formula_units_Z 8
_cell_length_a        16.9530542576
_cell_length_b         9.8844384604
_cell_length_c        26.4128468159
_cell_angle_alpha        89.9999
_cell_angle_beta        94.2533
_cell_angle_gamma        90.0006
_cell_volume          4413.848695
_space_group_crystal_system monoclinic
_space_group_IT_number 15
_space_group_name_H-M_alt 'C2/c'
_space_group_name_Hall '-C 2yc'
loop_
_symmetry_equiv_pos_site_id
_symmetry_equiv_pos_as_xyz
 1 'x,y,z'
 2 '-1/2-x,-1/2-y,-z'
 3 '-x,y,-1/2-z'
 4 '-1/2+x,-1/2-y,-1/2+z'
 5 '-1/2+x,-1/2+y,z'
 6 '-x,-y,-z'
 7 '-1/2-x,-1/2+y,-1/2-z'
 8 'x,-y,-1/2+z'
loop_
_atom_site_label
_atom_site_type_symbol
_atom_site_fract_x
_atom_site_fract_y
_atom_site_fract_z
C1    C     0.07754203586170 0.39653056412609 0.41983855861005 
C2    C     0.01511326250709 0.30891620590634 0.39890678835476 
C3    C     0.06547864296376 0.53359506632408 0.43744614833483 
C4    C     0.94041314435823 0.35460088063414 0.37453005096736 
C5    C     0.99071740071082 0.58400016957140 0.44915323932983 
C6    C     0.92713622660509 0.48544993510493 0.35064548710215 
C7    C     0.98745387906680 0.56717106129155 0.32982580689353 
C8    C     0.15523738842607 0.34201052296231 0.42745054989410 
C9    C     0.02766932504882 0.16629530249813 0.40230053079510 
C10   C     0.13271280007037 0.61846940166605 0.44904501888068 
C11   C     0.87472396912066 0.26468663642799 0.37460716485415 
C12   C     0.98186172478963 0.71369025447857 0.46741806764348 
C13   C     0.84871388990120 0.53835097458320 0.34891942696178 
C14   C     0.05951268825529 0.51355162460748 0.31123898911723 
C15   C     0.97362141452175 0.70849363216810 0.32464600489107 
C16   C     0.16772539828495 0.20003282731831 0.42398659755326 
C17   C     0.10495755811845 0.11421974518649 0.41475761155360 
C18   C     0.22108515867327 0.42902208471282 0.44000784244510 
C19   C     0.96277822964591 0.07540603910429 0.39364251390578 
C20   C     0.21052596773445 0.56412768892459 0.44771701460756 
C21   C     0.88767850905358 0.12410711502756 0.38384637854262 
C22   C     0.12186472554520 0.75274080048989 0.46586607711035 
C23   C     0.79636722926954 0.31595097633954 0.36577385068278 
C24   C     0.04763584151439 0.80032335649311 0.47482091877808 
C25   C     0.78409406923314 0.45108111353270 0.35728224008239 
C26   C     0.12170212677061 0.60463509361475 0.30061307747993 
C27   C     0.83513846225003 0.67805793416285 0.33877974857792 
C28   C     0.06906042656534 0.37556116660413 0.29860208324853 
C29   C     0.89688192605040 0.76211286395747 0.33027706994502 
C30   C     0.03625726185241 0.79665399244299 0.31257324895280 
C31   C     0.10894707065125 0.74705808582272 0.30347348325647 
C32   C     0.13849384976815 0.32808748103152 0.28073779495289 
C33   C     0.19335042299544 0.55298295107479 0.28410979343381 
C34   C     0.20229186733519 0.41660800632093 0.27492753518698 
H1    H     0.93963645464065 0.51765228556581 0.44570652968946 
H2    H     0.92389033816842 0.74760580073745 0.47737701961455 
H3    H     0.22757922505809 0.16080806893618 0.43128406070506 
H4    H     0.11298906740456 0.00488934265924 0.41559358552888 
H5    H     0.28013976175653 0.38462501647175 0.44306402335086 
H6    H     0.97389534787525 0.96725759359929 0.39761429910745 
H7    H     0.26099785689526 0.63089529653438 0.45572415968783 
H8    H     0.83674307514615 0.05658382266680 0.38119236651569 
H9    H     0.17392983528067 0.81649905124186 0.47307767414719 
H10   H     0.74691385118288 0.24654100169138 0.36814573469977 
H11   H     0.04036905358800 0.90224746935903 0.48935176162933 
H12   H     0.72456236983989 0.49331716664098 0.35445915397479 
H13   H     0.77511741411697 0.71716629790760 0.33918357402975 
H14   H     0.02007282229827 0.30628537764603 0.30193971755581 
H15   H     0.88744561282027 0.87035617954487 0.32499728683686 
H16   H     0.02452417284830 0.90503360058027 0.31080334539914 
H17   H     0.15685118945474 0.81506905616933 0.29525977698695 
H18   H     0.14338501866074 0.22162012647466 0.27070341998304 
H19   H     0.24063581655999 0.62388640914479 0.27728097165684 
H20   H     0.25721943781622 0.37812143889256 0.26163721641034 
