data_stdin
_audit_creation_method 'critic2'
_audit_creation_date 2023-8-11
_chemical_formula_sum 'C34 H20'
_cell_formula_units_Z 4
_cell_length_a         9.4418408405
_cell_length_b        17.6791635303
_cell_length_c        13.5361615606
_cell_angle_alpha        90.0001
_cell_angle_beta        76.2502
_cell_angle_gamma        89.9997
_cell_volume          2194.757014
_space_group_crystal_system monoclinic
_space_group_IT_number 14
_space_group_name_H-M_alt 'P2_1/c'
_space_group_name_Hall '-P 2ybc'
loop_
_symmetry_equiv_pos_site_id
_symmetry_equiv_pos_as_xyz
 1 'x,y,z'
 2 '-x,-y,-z'
 3 '-x,-1/2+y,-1/2-z'
 4 'x,-1/2-y,-1/2+z'
loop_
_atom_site_label
_atom_site_type_symbol
_atom_site_fract_x
_atom_site_fract_y
_atom_site_fract_z
C1    C     0.07909466031044 0.07100070978094 0.14722581265725 
C2    C     0.06805242152830 0.98958032358929 0.15031963404760 
C3    C     0.21500138736859 0.11252163900814 0.13047576114350 
C4    C     0.16907675264127 0.93978123684882 0.18355083717219 
C5    C     0.35242203475665 0.07919534287771 0.08777963966240 
C6    C     0.26164393426895 0.96258905893755 0.24932502808538 
C7    C     0.23221345310123 0.02551462692464 0.31915382160523 
C8    C     0.94906720024265 0.11323441268076 0.15511113677060 
C9    C     0.94564121194738 0.95593167875655 0.12286064195607 
C10   C     0.21133660122160 0.19234604643678 0.14827720388661 
C11   C     0.17574643291320 0.86288993594192 0.15138866715864 
C12   C     0.47961571973844 0.12093367778228 0.06990275295444 
C13   C     0.39122240798551 0.91987935517431 0.24463706269077 
C14   C     0.08706609563353 0.05113674853905 0.36910041265450 
C15   C     0.35226990858473 0.05974771716711 0.34813415218855 
C16   C     0.82029901040396 0.07647577024266 0.14292092058807 
C17   C     0.82291299004391 0.00138255774389 0.11824614740936 
C18   C     0.94898307640178 0.19292964137137 0.17191578553573 
C19   C     0.94513567283022 0.87672130578196 0.10369299974618 
C20   C     0.07446183538559 0.23070004473749 0.17386234606592 
C21   C     0.06159655746047 0.83274975799533 0.11079778586362 
C22   C     0.34377124112799 0.23327530653596 0.13353039449132 
C23   C     0.29554138639247 0.81678311011653 0.16146193136963 
C24   C     0.47632213186568 0.19828374819833 0.09572426733666 
C25   C     0.40560757035178 0.84643952905491 0.19960923693862 
C26   C     0.07046745080469 0.11922639863585 0.42774466758651 
C27   C     0.50482719718773 0.95174437699008 0.28432356402387 
C28   C     0.96072591209836 0.00681573991765 0.37365186039461 
C29   C     0.48997474705128 0.02262301655883 0.32644587963738 
C30   C     0.33244262643898 0.12926941198659 0.40362945141301 
C31   C     0.19684285650169 0.15979296000954 0.43843742685726 
C32   C     0.82474120234366 0.03023795609347 0.42732266677071 
C33   C     0.92959996392407 0.14226720062317 0.48181337063672 
C34   C     0.80787280162630 0.09928509505967 0.48071353780567 
H1    H     0.35746007856645 0.01974512968246 0.06703930274751 
H2    H     0.58294225926168 0.09424295818275 0.03423912755448 
H3    H     0.72203205155180 0.11001473209036 0.14866084771096 
H4    H     0.72892606654500 0.97432257468542 0.09967855929602 
H5    H     0.84568898306719 0.22315315683461 0.18401793961985 
H6    H     0.85248516034529 0.85249522744179 0.07980183201622 
H7    H     0.07276880834240 0.29113015707643 0.18955516300662 
H8    H     0.06528269355241 0.77302011483480 0.09132801365469 
H9    H     0.33833721973684 0.29380499056501 0.14937243804590 
H10   H     0.30046887844452 0.75871897822403 0.13380129228473 
H11   H     0.57734266490436 0.23058934731438 0.08316318787171 
H12   H     0.50342431089162 0.81350775711985 0.19909707609720 
H13   H     0.60623024822168 0.92031737780954 0.27620519514588 
H14   H     0.97171968985212 0.95161807232277 0.33764018813855 
H15   H     0.58105944513217 0.04973317783470 0.34885733881132 
H16   H     0.42812083890329 0.15698002098614 0.41908562771461 
H17   H     0.18269282057481 0.21280413144178 0.48058509952602 
H18   H     0.73130476506673 0.99318986540770 0.43230288843324 
H19   H     0.92012849379563 0.19291076125239 0.52875561959628 
H20   H     0.70079337138477 0.11633028351738 0.52532544234938 
