data_stdin
_audit_creation_method 'critic2'
_audit_creation_date 2023-8-11
_chemical_formula_sum 'C34 H20'
_cell_formula_units_Z 4
_cell_length_a        15.2956563600
_cell_length_b         9.6132158601
_cell_length_c        14.7350667500
_cell_angle_alpha        89.9998
_cell_angle_beta        90.0000
_cell_angle_gamma        89.9999
_cell_volume          2166.650791
_space_group_crystal_system orthorhombic
_space_group_IT_number 19
_space_group_name_H-M_alt 'P2_12_12_1'
_space_group_name_Hall 'P 2ac 2ab'
loop_
_symmetry_equiv_pos_site_id
_symmetry_equiv_pos_as_xyz
 1 'x,y,z'
 2 '-1/2+x,-1/2-y,-z'
 3 '-x,-1/2+y,-1/2-z'
 4 '-1/2-x,-y,-1/2+z'
loop_
_atom_site_label
_atom_site_type_symbol
_atom_site_fract_x
_atom_site_fract_y
_atom_site_fract_z
C1    C     0.87776698731361 0.46709460569348 0.46201256532027 
C2    C     0.86692771397271 0.49377304964413 0.55811599190397 
C3    C     0.86749726042867 0.33211859590839 0.41913736951905 
C4    C     0.87786081126325 0.39249951982593 0.63057879910959 
C5    C     0.82275551419627 0.22002065314145 0.46044877121346 
C6    C     0.93102216240763 0.26711546783556 0.62617362899091 
C7    C     0.00360739854991 0.24427805516233 0.56492544169206 
C8    C     0.89546882948479 0.58202199180825 0.40381653929442 
C9    C     0.84638023282391 0.63314446138222 0.58477020204526 
C10   C     0.89603173270279 0.31327885842065 0.32732206449020 
C11   C     0.83385821890272 0.42003555159631 0.71427055471772 
C12   C     0.81141692523609 0.09419714850767 0.41661511544155 
C13   C     0.90899726444594 0.15656021072945 0.68711677880057 
C14   C     0.05442776317448 0.35384442242832 0.52227427795023 
C15   C     0.03076678163629 0.10483893598225 0.54818990952846 
C16   C     0.88723092222682 0.72053653264757 0.43650364860428 
C17   C     0.85759965744860 0.74484208628289 0.52252742439125 
C18   C     0.92090065272520 0.56007528992488 0.31170746903027 
C19   C     0.81638952611855 0.66211003565794 0.67435554371005 
C20   C     0.92620145825752 0.42950584611019 0.27604094972927 
C21   C     0.80375994550940 0.55652301026203 0.73492066322129 
C22   C     0.88706413737947 0.18184091877285 0.28533518729315 
C23   C     0.82011206634001 0.31114568526206 0.77828411853393 
C24   C     0.84602405959045 0.07316417110260 0.32920877339215 
C25   C     0.85099117537928 0.18039221216138 0.76118849203367 
C26   C     0.11105027564103 0.32014826661034 0.44809587427340 
C27   C     0.94502247395674 0.02147106587858 0.67494641442769 
C28   C     0.05648593131749 0.49227956210052 0.55495706642642 
C29   C     0.99989923832099 0.99463212948728 0.60388224344456 
C30   C     0.09053778382653 0.07467320958214 0.47626183661947 
C31   C     0.12545503974103 0.17802561997561 0.42424738241780 
C32   C     0.10447543012596 0.59455544927379 0.51172336106832 
C33   C     0.15782070866903 0.42719106120597 0.40349723223492 
C34   C     0.15365994187793 0.56308621423997 0.43369168166842 
H1    H     0.79426245712855 0.23418741514670 0.52713614050216 
H2    H     0.77422962356038 0.01233718957744 0.44979240789279 
H3    H     0.90173258660992 0.80664910240612 0.39088274902700 
H4    H     0.84581184785380 0.85046368567595 0.54605206786835 
H5    H     0.93648307261213 0.65050989694294 0.27026945812689 
H6    H     0.80073494303603 0.76900379994281 0.69272484585963 
H7    H     0.94789485572134 0.41380359006911 0.20633509662903 
H8    H     0.77453914083679 0.57585253104808 0.80109068783310 
H9    H     0.91081361594703 0.16880332887348 0.21628430695931 
H10   H     0.78179488395455 0.33369461810985 0.83890616264580 
H11   H     0.83824452733905 0.97341154297284 0.29514898361318 
H12   H     0.83580295045039 0.09389534070210 0.80622291139182 
H13   H     0.92663545168360 0.93929328594134 0.72218934663653 
H14   H     0.02038325417849 0.51874687377533 0.61599134004106 
H15   H     0.02330378980081 0.88947134094460 0.59127738092887 
H16   H     0.10732446429663 0.96622945830646 0.46345860083844 
H17   H     0.16902362387025 0.15367716590716 0.36795346588197 
H18   H     0.10507672127930 0.69963706855114 0.53920902425103 
H19   H     0.20022171477825 0.39898375533250 0.34695675613662 
H20   H     0.19053740827456 0.64454874578330 0.39970144992717 
