data_stdin
_audit_creation_method 'critic2'
_audit_creation_date 2023-8-11
_chemical_formula_sum 'C34 H20'
_cell_formula_units_Z 4
_cell_length_a         9.4378386400
_cell_length_b        17.4863332954
_cell_length_c        13.6870918945
_cell_angle_alpha        90.0001
_cell_angle_beta        76.6192
_cell_angle_gamma        89.9997
_cell_volume          2197.505529
_space_group_crystal_system monoclinic
_space_group_IT_number 14
_space_group_name_H-M_alt 'P2_1/c'
_space_group_name_Hall '-P 2ybc'
loop_
_symmetry_equiv_pos_site_id
_symmetry_equiv_pos_as_xyz
 1 'x,y,z'
 2 '-x,-y,-z'
 3 '-x,-1/2+y,-1/2-z'
 4 'x,-1/2-y,-1/2+z'
loop_
_atom_site_label
_atom_site_type_symbol
_atom_site_fract_x
_atom_site_fract_y
_atom_site_fract_z
C1    C     0.78323865038274 0.03341858708208 0.17628707043598 
C2    C     0.74068696208181 0.97259100820249 0.24862800789860 
C3    C     0.93277081299122 0.05186532741451 0.12795638159700 
C4    C     0.82557566431936 0.94623901477229 0.31746626065830 
C5    C     0.05075452761741 0.00193341492051 0.12859540459752 
C6    C     0.93454100325278 0.99169168620683 0.34960562353703 
C7    C     0.93973027158191 0.07411303560126 0.34783682052634 
C8    C     0.67111148985578 0.07322209695297 0.14386376527977 
C9    C     0.60410323943334 0.93611512599837 0.25323506679826 
C10   C     0.96257914369085 0.11880897159346 0.06655098350727 
C11   C     0.80203803607609 0.87011085428302 0.35487799915336 
C12   C     0.19104451195206 0.01922762986040 0.07749284375035 
C13   C     0.04778760531716 0.95206048116041 0.38164554715590 
C14   C     0.81289569437744 0.12291313545919 0.35900807544554 
C15   C     0.07672860477100 0.10989114037259 0.34071969056184 
C16   C     0.52742419237120 0.04268416104268 0.16452988196742 
C17   C     0.49876373244111 0.97272310183099 0.20967286241520 
C18   C     0.70442513274312 0.14127976693228 0.08535610368421 
C19   C     0.57375155517329 0.86402823842347 0.30241312824955 
C20   C     0.84497834591835 0.16502527993381 0.05125651806597 
C21   C     0.67498331101742 0.82954187638373 0.34508727492893 
C22   C     0.10752684929919 0.13535884296063 0.01488104157934 
C23   C     0.90704290447157 0.83484320291095 0.40010391246549 
C24   C     0.22082383115649 0.08714356033630 0.02116313886470 
C25   C     0.03133528964420 0.87292716168817 0.40617067475276 
C26   C     0.83272498099189 0.20259191619626 0.33636956675068 
C27   C     0.17793897301594 0.99151964568417 0.38634245139690 
C28   C     0.66931719476006 0.09714931210895 0.40086958601521 
C29   C     0.19614430328512 0.06655136890439 0.35791937421374 
C30   C     0.09283731938632 0.18984737000798 0.31987905418202 
C31   C     0.97625146007383 0.23397273166776 0.31279195678855 
C32   C     0.55118588810857 0.14583193341186 0.41286048826749 
C33   C     0.70943920770421 0.25053476922168 0.34469619110708 
C34   C     0.57030097654342 0.22272220657576 0.38151368196294 
H1    H     0.02976374383468 0.94748830110349 0.16728335753855 
H2    H     0.27824626287002 0.97850474297869 0.07729762248747 
H3    H     0.44290740542832 0.07365605557977 0.13858052783354 
H4    H     0.39242964690080 0.94605574580136 0.21766954335034 
H5    H     0.61528518742523 0.17326232753755 0.06640362667271 
H6    H     0.47067179092088 0.83580823121225 0.30260672015878 
H7    H     0.86954639499835 0.21657280470458 0.00595466879017 
H8    H     0.65740649827284 0.77202476680202 0.37622544146496 
H9    H     0.12667823755199 0.18522869812850 0.96583716327358 
H10   H     0.89033190760075 0.77551302339330 0.42372570535800 
H11   H     0.33121340122221 0.09910172988574 0.97864911425091 
H12   H     0.11744785710505 0.84427851231151 0.43312482175143 
H13   H     0.26461155227967 0.95980473951027 0.40873596533677 
H14   H     0.65201919288506 0.03817840201925 0.42583152300902 
H15   H     0.30011623239307 0.09508227951901 0.35239584936331 
H16   H     0.20102918652448 0.21502644849077 0.30907005290951 
H17   H     0.98995782914212 0.29445593590980 0.29448180825926 
H18   H     0.44309244378478 0.12482195705554 0.44851257518945 
H19   H     0.72751091758623 0.31066289314916 0.32452207994746 
H20   H     0.47631595917502 0.26034281945917 0.38877449069548 
