data_stdin
_audit_creation_method 'critic2'
_audit_creation_date 2023-8-11
_chemical_formula_sum 'C34 H20'
_cell_formula_units_Z 4
_cell_length_a        17.1317228265
_cell_length_b         9.8308086526
_cell_length_c        14.9294640583
_cell_angle_alpha        89.9991
_cell_angle_beta        61.4624
_cell_angle_gamma        89.9988
_cell_volume          2208.909965
_space_group_crystal_system monoclinic
_space_group_IT_number 9
_space_group_name_H-M_alt 'Cc'
_space_group_name_Hall 'C -2yc'
loop_
_symmetry_equiv_pos_site_id
_symmetry_equiv_pos_as_xyz
 1 'x,y,z'
 2 '-1/2+x,-1/2-y,-1/2+z'
 3 '-1/2+x,-1/2+y,z'
 4 'x,-y,-1/2+z'
loop_
_atom_site_label
_atom_site_type_symbol
_atom_site_fract_x
_atom_site_fract_y
_atom_site_fract_z
C1    C     0.99943585141845 0.97538318373087 0.99907665281572 
C2    C     0.07926381544475 0.89416606686198 0.95818366587039 
C3    C     0.91086273561780 0.92001419206609 0.03606446195986 
C4    C     0.08994597326905 0.76310756028925 0.90920268302207 
C5    C     0.89035115070152 0.78105938505204 0.06190074775672 
C6    C     0.03903641233062 0.71670920335110 0.86058006128236 
C7    C     0.99623207638137 0.80442075023522 0.81943696921016 
C8    C     0.00684418181141 0.11726905787949 0.01169962598401 
C9    C     0.15365849455955 0.94728941882132 0.96510626032502 
C10   C     0.83838296766873 0.01040732382997 0.05838693341904 
C11   C     0.15510503258653 0.67303337169677 0.90917011185131 
C12   C     0.80463976870107 0.73227058497780 0.10050645927316 
C13   C     0.02936441366429 0.57325950046661 0.85473713009552 
C14   C     0.02501805467217 0.94158104616768 0.78272807237638 
C15   C     0.92441504355129 0.75025370053840 0.80813114320344 
C16   C     0.08652646811326 0.17124667504963 0.00506489883136 
C17   C     0.15548012213498 0.08684792884412 0.98920950973272 
C18   C     0.93318809201642 0.20494602633707 0.03445404879026 
C19   C     0.22582534105671 0.86008897736300 0.94839452693660 
C20   C     0.85312858479322 0.15388345609020 0.05158867403702 
C21   C     0.22324819154499 0.72476526812039 0.92867457998781 
C22   C     0.75161178741166 0.95715550341350 0.09491973271495 
C23   C     0.15163324830743 0.53181539335506 0.88983134204947 
C24   C     0.73455196238220 0.82019675152695 0.11515588743419 
C25   C     0.08627242326985 0.48239461038549 0.87093154815255 
C26   C     0.96886728505583 0.02694813599843 0.76046209427323 
C27   C     0.96251434303384 0.52108270391776 0.83325401211488 
C28   C     0.11002371647165 0.99265469324013 0.75915480803163 
C29   C     0.90784487443791 0.60768644636650 0.81722664627881 
C30   C     0.87006581814231 0.83820824961073 0.78518740670805 
C31   C     0.88903207388607 0.97339220411603 0.76680318289392 
C32   C     0.13564911592613 0.12338536066747 0.72310217286094 
C33   C     0.99571551654482 0.16157911050695 0.72577794299556 
C34   C     0.07745503360013 0.20995350288624 0.70801576040791 
H1    H     0.94285050094068 0.71171483357575 0.05316054730140 
H2    H     0.79127788553781 0.62503765736978 0.12031539844235 
H3    H     0.08945024821428 0.27950815541527 0.01875268489552 
H4    H     0.21361236909056 0.12565150217424 0.99245364077252 
H5    H     0.94241833333277 0.31407116462025 0.03842454975039 
H6    H     0.28086635641315 0.90244918175225 0.95654295965020 
H7    H     0.79770278778039 0.22136285305955 0.06708018923473 
H8    H     0.27469325871558 0.65531066649866 0.92365730934931 
H9    H     0.69744477654699 0.02731110376727 0.11026135476836 
H10   H     0.19985854032914 0.46413805131649 0.89458044391529 
H11   H     0.66721810229024 0.78113904895144 0.14539779313584 
H12   H     0.07913402894133 0.37355730110491 0.86329685198218 
H13   H     0.95451385405366 0.41118663190913 0.83283277569885 
H14   H     0.15659737175786 0.92711659497646 0.76845704565006 
H15   H     0.85333666729178 0.56857669417200 0.80651595519548 
H16   H     0.81319771094020 0.79425396552258 0.78165823413609 
H17   H     0.84714524885672 0.03990985911871 0.74959731759972 
H18   H     0.20152810372767 0.15909193553246 0.70601853842281 
H19   H     0.95126472767839 0.22474329552167 0.71028461106703 
H20   H     0.09780794180258 0.31285610143360 0.67958361810626 
