data_stdin
_audit_creation_method 'critic2'
_audit_creation_date 2023-8-11
_chemical_formula_sum 'C34 H20'
_cell_formula_units_Z 2
_cell_length_a        10.7074393158
_cell_length_b        12.8611505128
_cell_length_c         9.6744659569
_cell_angle_alpha        60.3678
_cell_angle_beta        78.1753
_cell_angle_gamma        91.0073
_cell_volume          1122.334530
_space_group_crystal_system triclinic
_space_group_IT_number 2
_space_group_name_H-M_alt 'P-1'
_space_group_name_Hall '-P 1'
loop_
_symmetry_equiv_pos_site_id
_symmetry_equiv_pos_as_xyz
 1 'x,y,z'
 2 '-x,-y,-z'
loop_
_atom_site_label
_atom_site_type_symbol
_atom_site_fract_x
_atom_site_fract_y
_atom_site_fract_z
C1    C     0.17043241097326 0.65750444013509 0.77334509494921 
C2    C     0.19162939537980 0.53292764527062 0.83647022583261 
C3    C     0.14385122078197 0.73441716029198 0.61445295046737 
C4    C     0.24298814358286 0.48109463914355 0.73723851686653 
C5    C     0.10410412497809 0.68899854083964 0.52105835744804 
C6    C     0.32186947255635 0.54891489208307 0.57040634323785 
C7    C     0.40108379275369 0.66423807219846 0.49791022026523 
C8    C     0.16559390185141 0.70568640284813 0.87836231285951 
C9    C     0.16259626030258 0.45535332931526 0.01038018671754 
C10   C     0.14439849851815 0.86099713821052 0.55446874488539 
C11   C     0.21375376118121 0.35351034715452 0.80914971871455 
C12   C     0.07671623728979 0.76447650599066 0.37175834089623 
C13   C     0.31910968406076 0.49789093956793 0.46918916025153 
C14   C     0.45637982405219 0.70654585050255 0.58933054817693 
C15   C     0.43636035395865 0.73764191943783 0.32381212401648 
C16   C     0.15581006206013 0.62773582465130 0.04856071369095 
C17   C     0.14465222205092 0.50542159817473 0.11403407017331 
C18   C     0.16454610038065 0.83212389226279 0.81536539403806 
C19   C     0.15337522621454 0.32783664840975 0.08069624380611 
C20   C     0.15969616685903 0.90833164915081 0.65695096986281 
C21   C     0.16905109044402 0.27852523880509 0.98246993560519 
C22   C     0.12077852583839 0.93722015564218 0.39834904479843 
C23   C     0.22873514540172 0.30180157962520 0.70721459020084 
C24   C     0.08871910350091 0.89031920466984 0.30696293649285 
C25   C     0.26984205065429 0.37387640069731 0.54067693591901 
C26   C     0.51915842684690 0.82823098833408 0.50743733615701 
C27   C     0.36480239087807 0.57107939573923 0.29606702077432 
C28   C     0.46382951914775 0.62966090830957 0.75345301734814 
C29   C     0.41330297848790 0.68996758881322 0.22503290567765 
C30   C     0.49946148819884 0.85856319589023 0.24606361719896 
C31   C     0.53473269763430 0.90460422513845 0.33490060976592 
C32   C     0.52212218683777 0.67121268688038 0.83518943869443 
C33   C     0.57363833426600 0.87016312519194 0.59564775960248 
C34   C     0.57477962887165 0.79355160522314 0.75741320023771 
H1    H     0.09240490553052 0.59226099955548 0.56918204393003 
H2    H     0.04325835462970 0.72560699093788 0.30598362318582 
H3    H     0.15148145769871 0.66681101882773 0.12652514708501 
H4    H     0.12585793687639 0.44421819427229 0.24601856416661 
H5    H     0.16663775107900 0.86612978596788 0.89830811870173 
H6    H     0.12755080368645 0.27111477778872 0.21387496067055 
H7    H     0.15958074392925 0.00477452456740 0.60936108524919 
H8    H     0.15156824235173 0.18104310601294 0.03502960170105 
H9    H     0.12384434883872 0.03348374579777 0.35463046605827 
H10   H     0.20286806360637 0.20463314308250 0.76387785182862 
H11   H     0.06851860419183 0.94964748455357 0.18827097299889 
H12   H     0.27254165694170 0.33662371747489 0.46077240767591 
H13   H     0.35611978189974 0.53134517393266 0.22145826785457 
H14   H     0.42580657117075 0.53477306792268 0.81470150063468 
H15   H     0.44102483276176 0.74795657960716 0.09198839396832 
H16   H     0.52015320253444 0.91292982360860 0.11265854736497 
H17   H     0.58101446621999 0.99747956064788 0.27574705126089 
H18   H     0.52853849220963 0.60886803374679 0.95995367636409 
H19   H     0.61732779180558 0.96409853388638 0.53171766201238 
H20   H     0.61915165545884 0.82647244349991 0.82281342417767 
