data_stdin
_audit_creation_method 'critic2'
_audit_creation_date 2023-8-11
_chemical_formula_sum 'C34 H20'
_cell_formula_units_Z 4
_cell_length_a        16.5833934440
_cell_length_b         9.0983169217
_cell_length_c        15.0107708486
_cell_angle_alpha        89.9999
_cell_angle_beta        76.7549
_cell_angle_gamma        89.9988
_cell_volume          2204.592068
_space_group_crystal_system monoclinic
_space_group_IT_number 14
_space_group_name_H-M_alt 'P2_1/c'
_space_group_name_Hall '-P 2ybc'
loop_
_symmetry_equiv_pos_site_id
_symmetry_equiv_pos_as_xyz
 1 'x,y,z'
 2 '-x,-y,-z'
 3 '-x,-1/2+y,-1/2-z'
 4 'x,-1/2-y,-1/2+z'
loop_
_atom_site_label
_atom_site_type_symbol
_atom_site_fract_x
_atom_site_fract_y
_atom_site_fract_z
C1    C     0.74676768793739 0.50750849453594 0.38186659568392 
C2    C     0.83339034997340 0.48342945152126 0.37914056030740 
C3    C     0.70509607792461 0.64754444868221 0.40311410553362 
C4    C     0.88184760633604 0.56643158942207 0.43084369156691 
C5    C     0.74805454587538 0.78288148603230 0.39794727144441 
C6    C     0.84842075711461 0.64586285816654 0.51526786698871 
C7    C     0.76974360385251 0.61655341241162 0.57850617342625 
C8    C     0.70036888683639 0.38981585378489 0.35611913745067 
C9    C     0.87402518411296 0.36585611758672 0.32333071088275 
C10   C     0.61663791957159 0.65305958837598 0.42111800620930 
C11   C     0.96950772121446 0.56862310767567 0.39617022769024 
C12   C     0.70629275047203 0.91443601105485 0.41789274376366 
C13   C     0.89741913859400 0.76372152408555 0.53755892688024 
C14   C     0.72784709364022 0.47504673067891 0.59056873556968 
C15   C     0.73356818663600 0.73153470437159 0.63897572823923 
C16   C     0.74158170638708 0.26307141531025 0.31241877257064 
C17   C     0.82617852846780 0.25635487692889 0.29151847830069 
C18   C     0.61232618996039 0.40029105780833 0.37163847217206 
C19   C     0.96214220223733 0.35698845036066 0.30042455008757 
C20   C     0.57141501108655 0.52477685034470 0.40731530147515 
C21   C     0.00827729182442 0.46248111545203 0.33039621388696 
C22   C     0.57509892703864 0.78843869255844 0.44507077145587 
C23   C     0.01854207270970 0.67614946796917 0.42799062383752 
C24   C     0.61911009755748 0.91736223907113 0.44464434275062 
C25   C     0.98241376686462 0.77727515933231 0.49193007191756 
C26   C     0.64552469072916 0.46488165784014 0.64679653446191 
C27   C     0.86205137618460 0.86820743759525 0.60590866940606 
C28   C     0.76694269033324 0.34134780034939 0.55678069522431 
C29   C     0.78049760853858 0.85831171382975 0.65016911288368 
C30   C     0.65091209811888 0.71849666374165 0.69284684252318 
C31   C     0.60692203550768 0.59166187466820 0.69403259400761 
C32   C     0.72686652036753 0.20755551339902 0.57277560431702 
C33   C     0.60474543081138 0.32695875829683 0.65988784049389 
C34   C     0.64416522546278 0.19980101085069 0.62304906212034 
H1    H     0.81517537644249 0.78359827046137 0.37585832954101 
H2    H     0.74095769654469 0.01678794891599 0.41171813204569 
H3    H     0.70499129577950 0.17571744508237 0.29158916136717 
H4    H     0.85834770844969 0.16444152040028 0.25260210546652 
H5    H     0.57836677548414 0.30581972883291 0.35458356658054 
H6    H     0.99172327911246 0.26756502279804 0.25669249851895 
H7    H     0.50419703455554 0.53066154037024 0.42112698454526 
H8    H     0.07566519031549 0.46072920601343 0.30939928160596 
H9    H     0.50759493937378 0.78863141314710 0.46047040221357 
H10   H     0.08477102488017 0.67897458231959 0.39812506487853 
H11   H     0.58694114621888 0.02159358034514 0.46162705157598 
H12   H     0.01876325567351 0.86500726783497 0.51297091935504 
H13   H     0.90060111853465 0.95771800122904 0.62091372522916 
H14   H     0.83068845793973 0.34323530792742 0.51809141674510 
H15   H     0.75173276326781 0.94243200644778 0.69867437931997 
H16   H     0.62474307450094 0.81206716887234 0.73491909832097 
H17   H     0.54390863379011 0.58216439467553 0.73543042283932 
H18   H     0.75986257974171 0.10723052742001 0.54739485581301 
H19   H     0.54182215587928 0.32306629578841 0.70214224581822 
H20   H     0.61278570688951 0.09394916482718 0.63471254765539 
