data_stdin
_audit_creation_method 'critic2'
_audit_creation_date 2023-8-11
_chemical_formula_sum 'C34 H20'
_cell_formula_units_Z 2
_cell_length_a        10.6579103794
_cell_length_b         9.5753666017
_cell_length_c        12.7708403669
_cell_angle_alpha        59.6281
_cell_angle_beta        98.1472
_cell_angle_gamma        91.0921
_cell_volume          1110.982699
_space_group_crystal_system triclinic
_space_group_IT_number 2
_space_group_name_H-M_alt 'P-1'
_space_group_name_Hall '-P 1'
loop_
_symmetry_equiv_pos_site_id
_symmetry_equiv_pos_as_xyz
 1 'x,y,z'
 2 '-x,-y,-z'
loop_
_atom_site_label
_atom_site_type_symbol
_atom_site_fract_x
_atom_site_fract_y
_atom_site_fract_z
C1    C     0.39127887240565 0.23337450648994 0.62880693424561 
C2    C     0.30338752303856 0.29321055412624 0.51575684148152 
C3    C     0.45688090216962 0.07381988576298 0.69621225567561 
C4    C     0.22670104222277 0.19338879609494 0.47981441400630 
C5    C     0.46608615727551 0.97362187111933 0.64517543956208 
C6    C     0.19146329355877 0.03205440128302 0.56434460943071 
C7    C     0.18369973079627 0.96899254192578 0.69266353570039 
C8    C     0.42217045485090 0.34194677190853 0.67253543756058 
C9    C     0.28893238531424 0.46453742725923 0.43399699646961 
C10   C     0.52541545924468 0.01814311881443 0.81654597021389 
C11   C     0.18344579042445 0.25801613782290 0.35200385512844 
C12   C     0.52799028011719 0.82142810741072 0.71276346358088 
C13   C     0.16393907279890 0.92633434477088 0.51697716033521 
C14   C     0.15453966052353 0.06726234844436 0.74408253582251 
C15   C     0.19417301087294 0.79773986580575 0.77220824833027 
C16   C     0.38808202905257 0.51060272484286 0.59545475837404 
C17   C     0.33234942954330 0.57134993765383 0.47633662423146 
C18   C     0.49318614171124 0.28357456399795 0.79194035391992 
C19   C     0.22954036668516 0.52865827736374 0.31019773245301 
C20   C     0.53894644662791 0.12569975894042 0.86357546285860 
C21   C     0.18661040783535 0.42737011092445 0.26845106204440 
C22   C     0.58440156548452 0.85921473681067 0.88584664371747 
C23   C     0.13910709350569 0.15292584194767 0.30816985085936 
C24   C     0.58381345010066 0.76076489789019 0.83579867316605 
C25   C     0.13988826015616 0.98991181781995 0.38780057580927 
C26   C     0.16399427242189 0.99426660955498 0.87449935609288 
C27   C     0.16204101303776 0.75664441538522 0.59877278191168 
C28   C     0.10294085347978 0.22965652323285 0.67100693422728 
C29   C     0.18745337976397 0.69327538147219 0.72294632058766 
C30   C     0.20511554752654 0.72923567064578 0.90193171870001 
C31   C     0.19530377130665 0.82436632011191 0.95202407759677 
C32   C     0.07063193386228 0.31789279115757 0.72274117569862 
C33   C     0.13403531812369 0.08846898670464 0.92567891538085 
C34   C     0.08888878980184 0.24834897113902 0.85135365784045 
H1    H     0.42462638133485 0.01784994896821 0.55039517262964 
H2    H     0.53550286442314 0.74903786388142 0.66989091527777 
H3    H     0.41352729826024 0.59107910316308 0.63095637494227 
H4    H     0.31801810879259 0.70174437263779 0.41302453972554 
H5    H     0.51097475338232 0.36873393164087 0.82450955803731 
H6    H     0.22288679431911 0.65975355217333 0.24966779638327 
H7    H     0.59090385629122 0.08158897449464 0.95539647849789 
H8    H     0.14869556588314 0.47469876079397 0.17195455990230 
H9    H     0.63238067456380 0.81798154607454 0.97878994334741 
H10   H     0.10988673554480 0.20378759560616 0.20986809810005 
H11   H     0.62937313153423 0.63881305441147 0.88950393651994 
H12   H     0.11567971976838 0.90702106944921 0.35425874825443 
H13   H     0.14612965514884 0.67783880030572 0.56039166033730 
H14   H     0.08536556612412 0.28484583292342 0.57183894569862 
H15   H     0.19566430517236 0.56248888490071 0.78549629259217 
H16   H     0.22068905461175 0.59789840531554 0.96012335306700 
H17   H     0.20507043669225 0.77177150070947 0.05103403935808 
H18   H     0.02839048352489 0.44087920619164 0.66393114982195 
H19   H     0.14308135293939 0.03038199185779 0.02526951545797 
H20   H     0.06331057506592 0.31837727486238 0.89178475921255 
