data_stdin
_audit_creation_method 'critic2'
_audit_creation_date 2023-8-11
_chemical_formula_sum 'C34 H20'
_cell_formula_units_Z 2
_cell_length_a         9.5754149744
_cell_length_b        10.6595515995
_cell_length_c        12.7697717476
_cell_angle_alpha        81.8347
_cell_angle_beta        59.6309
_cell_angle_gamma        88.9118
_cell_volume          1111.029708
_space_group_crystal_system triclinic
_space_group_IT_number 2
_space_group_name_H-M_alt 'P-1'
_space_group_name_Hall '-P 1'
loop_
_symmetry_equiv_pos_site_id
_symmetry_equiv_pos_as_xyz
 1 'x,y,z'
 2 '-x,-y,-z'
loop_
_atom_site_label
_atom_site_type_symbol
_atom_site_fract_x
_atom_site_fract_y
_atom_site_fract_z
C1    C     0.23349507358635 0.10875568958628 0.12871314068165 
C2    C     0.29335477919000 0.19663197110985 0.01561798409470 
C3    C     0.07392439172151 0.04315861782162 0.19615132271225 
C4    C     0.19356101336426 0.27330621588853 0.97963325227854 
C5    C     0.97372452042080 0.03394337495672 0.14511304541024 
C6    C     0.03223790125650 0.30853738542101 0.06414351196603 
C7    C     0.96916268344369 0.31629648792672 0.19247070219112 
C8    C     0.34205854800773 0.07786998386841 0.17245892173149 
C9    C     0.46468248808872 0.21108384850496 0.93385135821528 
C10   C     0.01823189813080 0.97463699628701 0.31652126545217 
C11   C     0.25820664703771 0.31655440428037 0.85179578178166 
C12   C     0.82151845287973 0.97204062649876 0.21272754029632 
C13   C     0.92653858682221 0.33605678855727 0.01674798619349 
C14   C     0.06742036793273 0.34546203168125 0.24389953483698 
C15   C     0.79790944215467 0.30581489210273 0.27200937549786 
C16   C     0.51071995352076 0.11194561605250 0.09536031763176 
C17   C     0.57147910115598 0.16766956240528 0.97621266252626 
C18   C     0.28366801250815 0.00687258676166 0.29190331133361 
C19   C     0.52882283064875 0.27046639464394 0.81002013885767 
C20   C     0.12578443277024 0.96111671883147 0.36356138331599 
C21   C     0.42755398001834 0.31338859081998 0.76824658395894 
C22   C     0.85929290360826 0.91564982777208 0.38584667243471 
C23   C     0.15314256429340 0.36089109035286 0.80792929769999 
C24   C     0.76084492378476 0.91622668717830 0.33579243088605 
C25   C     0.99013188923279 0.36010983666454 0.88755265988999 
C26   C     0.99440319512971 0.33601766229923 0.37432897256342 
C27   C     0.75685155991322 0.33794946349094 0.09853402158440 
C28   C     0.22982499768014 0.39706202371032 0.17081498198098 
C29   C     0.69346248152632 0.31253323430398 0.22272608244094 
C30   C     0.72938628088802 0.29486859947378 0.40174662655589 
C31   C     0.82450031569550 0.30469559513431 0.45185461290005 
C32   C     0.31804766506585 0.42938693087410 0.22255499075710 
C33   C     0.08859047453807 0.36599541827095 0.42551659993845 
C34   C     0.24847859509083 0.41114528753080 0.35118446440471 
H1    H     0.01796206363667 0.07539610012042 0.05031041707494 
H2    H     0.74912499959744 0.96452176434109 0.16985501088390 
H3    H     0.59118846118189 0.08650341585786 0.13087550532985 
H4    H     0.70187359899703 0.18199717277182 0.91289328387169 
H5    H     0.36882372697055 0.98909179068516 0.32448206775603 
H6    H     0.65991651574156 0.27712086664776 0.74949116413544 
H7    H     0.08166483128410 0.90916743301152 0.45540919143014 
H8    H     0.47489510528076 0.35129585246961 0.67172802010058 
H9    H     0.81804758298285 0.86767833724922 0.47881518494322 
H10   H     0.20402071277874 0.39011377107671 0.70960969626761 
H11   H     0.63888496318470 0.87066607361692 0.38951765432191 
H12   H     0.90725543057398 0.38432049169642 0.85399241042106 
H13   H     0.67806224105683 0.35385998915102 0.06013274114004 
H14   H     0.28503237543068 0.41462905725722 0.07163362381074 
H15   H     0.56267511553102 0.30432103841870 0.28527187919853 
H16   H     0.59804846360974 0.27928027644906 0.45993390290897 
H17   H     0.77189254369765 0.29492999673228 0.55087539974364 
H18   H     0.44104411840712 0.47162853863599 0.16373745261822 
H19   H     0.03048500494686 0.35695737577207 0.52511757588070 
H20   H     0.31849782729725 0.43673544328286 0.39161856875685 
