data_stdin
_audit_creation_method 'critic2'
_audit_creation_date 2023-8-11
_chemical_formula_sum 'C34 H20'
_cell_formula_units_Z 4
_cell_length_a        13.7544139836
_cell_length_b         9.8295428720
_cell_length_c        16.4989819100
_cell_angle_alpha        89.9990
_cell_angle_beta        78.8105
_cell_angle_gamma        89.9992
_cell_volume          2188.252733
_space_group_crystal_system monoclinic
_space_group_IT_number 14
_space_group_name_H-M_alt 'P2_1/c'
_space_group_name_Hall '-P 2ybc'
loop_
_symmetry_equiv_pos_site_id
_symmetry_equiv_pos_as_xyz
 1 'x,y,z'
 2 '-x,-y,-z'
 3 '-x,-1/2+y,-1/2-z'
 4 'x,-1/2-y,-1/2+z'
loop_
_atom_site_label
_atom_site_type_symbol
_atom_site_fract_x
_atom_site_fract_y
_atom_site_fract_z
C1    C     0.34290171830304 0.52798586909752 0.27964997809044 
C2    C     0.38097870735334 0.60763940334602 0.34020845462224 
C3    C     0.29228639832106 0.58452443043494 0.21787513919371 
C4    C     0.34305728427005 0.73894692767795 0.37150328131745 
C5    C     0.29657099895792 0.72413162818708 0.19634946095545 
C6    C     0.24333848334608 0.78688512309907 0.37243654892101 
C7    C     0.15856646542941 0.70010631102069 0.37232945319910 
C8    C     0.36151245098860 0.38555240428872 0.27665288940348 
C9    C     0.46049956338830 0.55186479858703 0.37371569956545 
C10   C     0.24255160388983 0.49512083665905 0.17081167887678 
C11   C     0.40866592190643 0.82729060320036 0.40345831578081 
C12   C     0.24933261719471 0.77436255368258 0.13596996460168 
C13   C     0.22866248587468 0.93054192625405 0.37138548212279 
C14   C     0.14856522637231 0.56304899056479 0.40539924870086 
C15   C     0.07674759692227 0.75537417005387 0.34238639621316 
C16   C     0.43256520822730 0.32918365246188 0.31938245960209 
C17   C     0.48466239535582 0.41150217165534 0.36249711820457 
C18   C     0.31027536100002 0.29900548924264 0.22940579548589 
C19   C     0.51574856680207 0.63709119441937 0.41810182637385 
C20   C     0.24900138278989 0.35153498201684 0.18143238417354 
C21   C     0.49557876339256 0.77321518266113 0.42623072457230 
C22   C     0.19315729807645 0.54944645231698 0.11035323003410 
C23   C     0.38638230735287 0.96863479308059 0.41254814406503 
C24   C     0.19552018677773 0.68701594450284 0.09331144909633 
C25   C     0.30236606005787 0.01983448932339 0.39114562510974 
C26   C     0.06937209623739 0.47893236213444 0.38969955904877 
C27   C     0.14072648668212 0.98394185870030 0.34999543435753 
C28   C     0.20860393914547 0.51073692024306 0.45890106042340 
C29   C     0.07015186664420 0.89832133565229 0.33058766528237 
C30   C     0.99982094932857 0.66799788266975 0.32623136386591 
C31   C     0.99803014629651 0.53320438211666 0.34633720803004 
C32   C     0.19598488278555 0.38032628397094 0.49029011878888 
C33   C     0.05927995986051 0.34458560571742 0.42113747911794 
C34   C     0.12180544380828 0.29510281352411 0.47022212334386 
H1    H     0.33956236493759 0.79302077009537 0.22679395455493 
H2    H     0.25450858239880 0.88241657866513 0.12101866886746 
H3    H     0.44830095566976 0.22064174723748 0.31337072378425 
H4    H     0.54338375276865 0.37022599276474 0.39097633167531 
H5    H     0.32216010141266 0.18968128018787 0.23217401198554 
H6    H     0.57721231077833 0.59269564291120 0.44186079128185 
H7    H     0.20920853354804 0.28490396061956 0.14636733960742 
H8    H     0.54399476150257 0.84150479798672 0.45203663470056 
H9    H     0.15565274993603 0.47990692266430 0.07516327784086 
H10   H     0.43985287422851 0.03538291101183 0.43334571449496 
H11   H     0.15946373430451 0.72682274505596 0.04515110945846 
H12   H     0.28818890126739 0.12888983770805 0.39229896351062 
H13   H     0.13252021663471 0.09393528796352 0.34695167777570 
H14   H     0.26505033152896 0.57521124208969 0.47653709292088 
H15   H     0.00554431894636 0.93881534550008 0.30969849937884 
H16   H     0.94211937290445 0.71216801448248 0.29758344833104 
H17   H     0.93914082703426 0.46700930697703 0.33394963095856 
H18   H     0.24354415834944 0.34381558364055 0.53131913183628 
H19   H     0.99928814396292 0.28194664209649 0.40721810183324 
H20   H     0.11188553705401 0.19241437760414 0.49512227858783 
