data_stdin
_audit_creation_method 'critic2'
_audit_creation_date 2023-8-11
_chemical_formula_sum 'C34 H20'
_cell_formula_units_Z 8
_cell_length_a        30.7392637961
_cell_length_b         9.5656376707
_cell_length_c        15.2210059271
_cell_angle_alpha        90.0002
_cell_angle_beta        90.1324
_cell_angle_gamma        90.0001
_cell_volume          4475.582670
_space_group_crystal_system monoclinic
_space_group_IT_number 15
_space_group_name_H-M_alt 'C2/c'
_space_group_name_Hall '-C 2yc'
loop_
_symmetry_equiv_pos_site_id
_symmetry_equiv_pos_as_xyz
 1 'x,y,z'
 2 '-x,-y,-z'
 3 '-x,y,-1/2-z'
 4 'x,-y,-1/2+z'
 5 '-1/2+x,-1/2+y,z'
 6 '-1/2-x,-1/2-y,-z'
 7 '-1/2-x,-1/2+y,-1/2-z'
 8 '-1/2+x,-1/2-y,-1/2+z'
loop_
_atom_site_label
_atom_site_type_symbol
_atom_site_fract_x
_atom_site_fract_y
_atom_site_fract_z
C1    C     0.39712554361232 0.37613606790886 0.13950703527155 
C2    C     0.36371197441792 0.27323992877459 0.15582774365148 
C3    C     0.38874115679351 0.52392953995138 0.12697546246430 
C4    C     0.31892365082776 0.28493122594332 0.12711975995225 
C5    C     0.34934625279190 0.58959830732020 0.15197656751891 
C6    C     0.30450955071254 0.37028115096524 0.05410171805089 
C7    C     0.33153424613442 0.41483251405764 0.98183446948223 
C8    C     0.44123275244626 0.33132964055699 0.14122621414586 
C9    C     0.37579289355119 0.14990492231465 0.20254433776194 
C10   C     0.42283918849825 0.61135099942427 0.09452829124990 
C11   C     0.28694555862342 0.20781162169582 0.17443230493843 
C12   C     0.34222876868546 0.73006335589978 0.13659783037224 
C13   C     0.26040892488481 0.41658111282307 0.05510521679041 
C14   C     0.36874287772961 0.33791485562487 0.94871359106442 
C15   C     0.31903863454902 0.53770661740556 0.93568572970746 
C16   C     0.45199760570042 0.19621602184926 0.17412984200597 
C17   C     0.42053222704597 0.11275809856385 0.21003014355524 
C18   C     0.47486473972337 0.42313034761740 0.11215487573764 
C19   C     0.34302587482797 0.06298332181511 0.24001604956941 
C20   C     0.46563335608538 0.55598777176546 0.08510211289551 
C21   C     0.29999475020808 0.09723343409726 0.23140598601828 
C22   C     0.41443918752619 0.75433249109593 0.07727315776370 
C23   C     0.24209715743931 0.24125645488203 0.16418825151691 
C24   C     0.37446527198365 0.81250336699957 0.09609909274087 
C25   C     0.22978743282277 0.34967618523847 0.11116243603640 
C26   C     0.39676283775909 0.40292997297346 0.88579923990456 
C27   C     0.24720048563895 0.52972852316718 0.00046832499789 
C28   C     0.37658941454501 0.19530878610462 0.96857853792115 
C29   C     0.27676522367449 0.59535996384730 0.94756315164810 
C30   C     0.34851569225369 0.60202509305212 0.87565174049458 
C31   C     0.38715672498077 0.54032830448988 0.85490644112862 
C32   C     0.41120603133695 0.12302773793912 0.93258323807053 
C33   C     0.43232636461565 0.32759657129059 0.85056697949300 
C34   C     0.43996277900939 0.19037145787407 0.87427828600332 
H1    H     0.32456597603889 0.52835576692414 0.18505696090155 
H2    H     0.31171758261339 0.77810526983755 0.15671903458009 
H3    H     0.48604685834444 0.16448437671804 0.17414820367545 
H4    H     0.42858927115225 0.01379687205295 0.24151116169025 
H5    H     0.50821741988647 0.38441350507616 0.11122990651027 
H6    H     0.35320007501418 0.97141635613378 0.27736285135468 
H7    H     0.49134397043983 0.62340702690925 0.06032430068676 
H8    H     0.27494354048823 0.03660162566222 0.26461269949854 
H9    H     0.44071100287340 0.81840445430993 0.05097600311572 
H10   H     0.21800938496431 0.18164384125354 0.20079494878745 
H11   H     0.36842297263643 0.92276492576372 0.08364832947378 
H12   H     0.19590459639611 0.38217321912473 0.10773717289528 
H13   H     0.21363891070363 0.56602807488620 0.00402631737003 
H14   H     0.35439033277591 0.14080500692773 0.01212644681881 
H15   H     0.26781170967024 0.68826908929767 0.91028190879583 
H16   H     0.33928213871874 0.70166989451486 0.84643552458160 
H17   H     0.40973154533347 0.59069113794764 0.80994330034284 
H18   H     0.41574990450082 0.01297368329225 0.94856526552872 
H19   H     0.45307452499960 0.37938734285165 0.80258730142889 
H20   H     0.46759841346586 0.13393503984203 0.84690002315447 
