data_stdin
_audit_creation_method 'critic2'
_audit_creation_date 2023-8-11
_chemical_formula_sum 'C34 H20'
_cell_formula_units_Z 4
_cell_length_a        10.4215454565
_cell_length_b        11.4954026251
_cell_length_c        19.5215734698
_cell_angle_alpha        89.9981
_cell_angle_beta        71.1511
_cell_angle_gamma        89.9994
_cell_volume          2213.266741
_space_group_crystal_system monoclinic
_space_group_IT_number 14
_space_group_name_H-M_alt 'P2_1/c'
_space_group_name_Hall '-P 2ybc'
loop_
_symmetry_equiv_pos_site_id
_symmetry_equiv_pos_as_xyz
 1 'x,y,z'
 2 '-x,-y,-z'
 3 '-x,-1/2+y,-1/2-z'
 4 'x,-1/2-y,-1/2+z'
loop_
_atom_site_label
_atom_site_type_symbol
_atom_site_fract_x
_atom_site_fract_y
_atom_site_fract_z
C1    C     0.55925484321512 0.78962895904624 0.06224226090215 
C2    C     0.65083594951519 0.87613513042631 0.01922493801336 
C3    C     0.51092307233203 0.78708600222963 0.14069563006268 
C4    C     0.75160228894322 0.93921598585573 0.04114991918408 
C5    C     0.52057162300725 0.88357008831745 0.18397920113527 
C6    C     0.81166241344890 0.89939918181129 0.09460674605148 
C7    C     0.82043443789353 0.77949430671600 0.11585603913386 
C8    C     0.50479988647178 0.70597981046803 0.02559122641015 
C9    C     0.64413659369557 0.89930307084287 0.94854119536490 
C10   C     0.43688207428220 0.68780546872208 0.17717419634258 
C11   C     0.79687613277988 0.04801084291132 0.00648116979366 
C12   C     0.46989704098149 0.87936564433469 0.25869435442825 
C13   C     0.86745198626648 0.98623344796763 0.12916250080746 
C14   C     0.82395560176761 0.67889923414334 0.07013532713245 
C15   C     0.83840680820001 0.75842202447689 0.18411934942689 
C16   C     0.51972387500786 0.72062695593222 0.95107654819944 
C17   C     0.57808227465494 0.81936656723790 0.91534536965586 
C18   C     0.43042510985789 0.60852376939894 0.06368870195564 
C19   C     0.70539185128641 0.00144482171318 0.91062429396419 
C20   C     0.40226929082689 0.59687246483645 0.13659522836648 
C21   C     0.77073599235439 0.07799415289691 0.94147736875486 
C22   C     0.39008114621592 0.68393905556635 0.25369495246689 
C23   C     0.86946888446502 0.12691105198649 0.03645575748837 
C24   C     0.40715753834889 0.77747806104213 0.29410849908752 
C25   C     0.89456031488334 0.09997150504611 0.09906731586604 
C26   C     0.81541084828258 0.56445913692610 0.10029367998511 
C27   C     0.89569142440689 0.96015593795021 0.19413130187513 
C28   C     0.84935231476657 0.68682452197674 0.99442037185909 
C29   C     0.87149456925876 0.85128788369214 0.22363234651046 
C30   C     0.82963092052485 0.64306776162965 0.21246490989328 
C31   C     0.81297420908428 0.54944894541669 0.17324992843892 
C32   C     0.85818800126023 0.58916307530297 0.95192340879501 
C33   C     0.82071701081936 0.46588265609448 0.05595818539702 
C34   C     0.84153997258810 0.47724897711051 0.98286452042683 
H1    H     0.56546265029984 0.96390773624273 0.15775132029940 
H2    H     0.47570614016248 0.95612717582457 0.29015180080197 
H3    H     0.47719853887738 0.65451142119994 0.92473217203561 
H4    H     0.57896267291691 0.83650130545328 0.86028640866500 
H5    H     0.39521920728378 0.54402733110090 0.03309719702685 
H6    H     0.69321244289668 0.01984422705053 0.85833792601372 
H7    H     0.34628747500984 0.52176735920350 0.16531663938221 
H8    H     0.80893197107978 0.16052887766083 0.91542304371549 
H9    H     0.33576638859547 0.60689031337900 0.28026426105714 
H10   H     0.90140430423070 0.20985935696821 0.00940655380949 
H11   H     0.36823970437574 0.77315043033010 0.35288753333056 
H12   H     0.94049022430309 0.16315564735489 0.12568954562487 
H13   H     0.93325314163024 0.02953239467233 0.22065121266761 
H14   H     0.86524493297889 0.77166792709559 0.96885571267399 
H15   H     0.88485752336262 0.83194260063454 0.27556668195817 
H16   H     0.83725770625128 0.63169627685829 0.26646687271446 
H17   H     0.80432794620498 0.46184512229713 0.19555616884916 
H18   H     0.87996745106232 0.59876842678449 0.89376043407562 
H19   H     0.81416321007052 0.38010488102243 0.08048567471803 
H20   H     0.84943781059477 0.40084892152210 0.94880955631884 
