data_stdin
_audit_creation_method 'critic2'
_audit_creation_date 2023-8-11
_chemical_formula_sum 'C34 H20'
_cell_formula_units_Z 4
_cell_length_a        10.9749912727
_cell_length_b         9.5811685896
_cell_length_c        22.6614049188
_cell_angle_alpha        89.9862
_cell_angle_beta        69.8970
_cell_angle_gamma        89.9908
_cell_volume          2237.743990
_space_group_crystal_system triclinic
_space_group_IT_number 2
_space_group_name_H-M_alt 'P-1'
_space_group_name_Hall '-P 1'
loop_
_symmetry_equiv_pos_site_id
_symmetry_equiv_pos_as_xyz
 1 'x,y,z'
 2 '-x,-y,-z'
loop_
_atom_site_label
_atom_site_type_symbol
_atom_site_fract_x
_atom_site_fract_y
_atom_site_fract_z
C1    C     0.41221767307917 0.09957344230259 0.42287226140721 
C2    C     0.58777604769700 0.59963100286738 0.07716347791647 
C3    C     0.32797714079971 0.07771814567487 0.48716904082501 
C4    C     0.67201532248679 0.57785997030033 0.01286571544876 
C5    C     0.46796432578445 0.23287698892676 0.39691691980921 
C6    C     0.53201994039005 0.73291197746912 0.10312962132275 
C7    C     0.24288440145203 0.18158617681507 0.52726911749607 
C8    C     0.75710588118318 0.68176968604869 0.97278303016126 
C9    C     0.47259850787275 0.34877652855949 0.43481854209284 
C10   C     0.52736490584318 0.84887142131294 0.06523641875447 
C11   C     0.19360734037334 0.30365252888126 0.50497925233739 
C12   C     0.80637185028061 0.80378131652662 0.99508840263087 
C13   C     0.18268406029388 0.31781670460566 0.44347441058791 
C14   C     0.81732014689335 0.81784471267152 0.05659076411331 
C15   C     0.45134670027872 0.98084171713455 0.38316643338829 
C16   C     0.54864742630878 0.48084278836651 0.11685470670783 
C17   C     0.32500916851727 0.94129917195467 0.51293286622164 
C18   C     0.67496145690526 0.44149434795888 0.98708241602745 
C19   C     0.53354384480935 0.24625256730330 0.33055889417641 
C20   C     0.46644574681451 0.74620323635896 0.16948818981062 
C21   C     0.20286432140839 0.16122657449536 0.59361652489119 
C22   C     0.79711591077440 0.66152102384906 0.90643317003274 
C23   C     0.53143296593935 0.47269285302936 0.40908581649206 
C24   C     0.46852410942869 0.97276706838539 0.09097970637742 
C25   C     0.15512569776440 0.42022383718087 0.54656232257587 
C26   C     0.84482437868424 0.92041279473485 0.95351681164737 
C27   C     0.16325591020721 0.20223092078518 0.40636955931082 
C28   C     0.83676826742172 0.70219246403212 0.09368504184321 
C29   C     0.18167073398670 0.45480931808280 0.41952317366002 
C30   C     0.81835409870726 0.95480029205041 0.08054829337990 
C31   C     0.42906952353130 0.84414916283259 0.40906799266559 
C32   C     0.57090249173617 0.34419034956691 0.09093406541899 
C33   C     0.37652276904255 0.82593294630048 0.47263006119940 
C34   C     0.62343154685443 0.32607726517444 0.02736845201091 
C35   C     0.51639051691540 0.99769039579591 0.31718571115164 
C36   C     0.48361623370737 0.49760863543381 0.18283731195521 
C37   C     0.26848032317827 0.91904029633270 0.57894004997787 
C38   C     0.73147525580287 0.41934337084582 0.92107152763189 
C39   C     0.55027929292218 0.12658252276721 0.29112050261064 
C40   C     0.44972819375821 0.62647283600991 0.20891492714237 
C41   C     0.21803573369458 0.02838059358459 0.61839395524700 
C42   C     0.78192943158164 0.52873975654044 0.88163635360195 
C43   C     0.58919717145859 0.37583080014426 0.30505315937668 
C44   C     0.41078024330195 0.87576222126253 0.19500507112772 
C45   C     0.14510007798656 0.27332436260242 0.63506232190071 
C46   C     0.85486409795175 0.77367220256503 0.86499943533154 
C47   C     0.58753902537176 0.48803668756154 0.34347243203002 
C48   C     0.41242462675209 0.98802785079405 0.15659751862668 
C49   C     0.13109173968172 0.40198586852915 0.61199108722647 
C50   C     0.86884910896784 0.90228676958037 0.88808668123076 
C51   C     0.17534946058252 0.22529664472728 0.34219247120417 
C52   C     0.82473099404198 0.72516816966479 0.15785667227455 
C53   C     0.14130603788520 0.55434552308953 0.52260561140474 
C54   C     0.85863199590082 0.05449228291427 0.97748177979962 
C55   C     0.12116702092777 0.06854940345262 0.43203559364164 
C56   C     0.87882737782490 0.56852548889816 0.06801143742971 
C57   C     0.16459353171187 0.57245103552768 0.45983592359072 
C58   C     0.83538510542109 0.07250400465651 0.04024894528452 
C59   C     0.19289130104455 0.47444036211170 0.35539723163119 
C60   C     0.80721100005904 0.97434197897260 0.14466557464376 
C61   C     0.19618040993083 0.36345046049322 0.31707895097236 
C62   C     0.80395037698376 0.86329712604840 0.18297441984670 
C63   C     0.10124147312170 0.96104108945208 0.39579183335531 
C64   C     0.89876073180217 0.46094770630293 0.10424472233307 
C65   C     0.15872816709031 0.11210864447823 0.30548322893747 
C66   C     0.84136502194754 0.61191374919220 0.19455613035442 
C67   C     0.12356592485909 0.98143927782348 0.33137602531962 
C68   C     0.87648093496608 0.48125935635628 0.16865732518645 
H1    H     0.43090130325228 0.33846011448233 0.48545992502400 
H2    H     0.56905571618055 0.83862374473943 0.01459403920030 
H3    H     0.53546758019732 0.55873757252404 0.43962120176520 
H4    H     0.46447202424169 0.05885860842390 0.06045098798632 
H5    H     0.46003127860792 0.75485747098648 0.37770649387941 
H6    H     0.53993415950053 0.25485093904127 0.12228207341008 
H7    H     0.36749215023978 0.72246862188261 0.49342854040147 
H8    H     0.63243264044042 0.22265230573812 0.00655457221541 
H9    H     0.53866849017835 0.90470353773769 0.28773680746310 
H10   H     0.46134606821906 0.40458198177659 0.21227869911421 
H11   H     0.27199840315877 0.81455596440118 0.59720729945421 
H12   H     0.72793577960403 0.31490390998942 0.90278761133935 
H13   H     0.59666550720002 0.13835320645390 0.24046909708400 
H14   H     0.40335859599051 0.63817522595954 0.25956780603739 
H15   H     0.18332206207554 0.01412137129160 0.66916598748862 
H16   H     0.81663308334604 0.51457244730501 0.83086208939411 
H17   H     0.63685996184917 0.38489775686859 0.25439008969850 
H18   H     0.36311087731741 0.88476626799736 0.24566861947663 
H19   H     0.11628830653132 0.25509423936458 0.68548421461598 
H20   H     0.88366937124507 0.75552365416205 0.81457564849696 
H21   H     0.63235790530003 0.58648240079768 0.32339489623472 
H22   H     0.36759695243882 0.08646197915850 0.17667389799539 
H23   H     0.09676907002771 0.49121619834127 0.64307773928322 
H24   H     0.90314640228470 0.99156561589353 0.85701258862420 
H25   H     0.11489438601676 0.64244884396621 0.55492793458401 
H26   H     0.88500554453785 0.14264253726143 0.94516764573074 
H27   H     0.10228229501861 0.05044940824661 0.48163468949627 
H28   H     0.89768730725434 0.55049165459939 0.01841370036419 
H29   H     0.16346360927954 0.67621655866347 0.44050901269108 
H30   H     0.83651323321392 0.17623742728125 0.05958366259445 
H31   H     0.19756694440024 0.58099868086276 0.33792303992977 
H32   H     0.80258007165590 0.08087729094204 0.16213949759051 
H33   H     0.20810399276011 0.37949316203068 0.26777453778974 
H34   H     0.79208970592291 0.87927129243582 0.23227222730424 
H35   H     0.06564239460650 0.86072705688663 0.41743994655132 
H36   H     0.93432880539012 0.36064457085980 0.08258950189843 
H37   H     0.17134059160971 0.13087645067450 0.25632741617632 
H38   H     0.82879928891816 0.63061492032110 0.24370807399135 
H39   H     0.10923514373869 0.89585522606853 0.30281138336512 
H40   H     0.89081252374290 0.39562300800366 0.19721655463386 
