data_stdin
_audit_creation_method 'critic2'
_audit_creation_date 2023-8-11
_chemical_formula_sum 'C34 H20'
_cell_formula_units_Z 8
_cell_length_a        21.2543419254
_cell_length_b         9.6925870330
_cell_length_c        21.5959570442
_cell_angle_alpha        90.0013
_cell_angle_beta        99.3688
_cell_angle_gamma        90.0004
_cell_volume          4389.628428
_space_group_crystal_system monoclinic
_space_group_IT_number 15
_space_group_name_H-M_alt 'C2/c'
_space_group_name_Hall '-C 2yc'
loop_
_symmetry_equiv_pos_site_id
_symmetry_equiv_pos_as_xyz
 1 'x,y,z'
 2 '-1/2-x,-1/2-y,-z'
 3 '-1/2-x,-1/2+y,-1/2-z'
 4 'x,-y,-1/2+z'
 5 '-1/2+x,-1/2+y,z'
 6 '-x,-y,-z'
 7 '-x,y,-1/2-z'
 8 '-1/2+x,-1/2-y,-1/2+z'
loop_
_atom_site_label
_atom_site_type_symbol
_atom_site_fract_x
_atom_site_fract_y
_atom_site_fract_z
C1    C     0.43415229693960 0.69189778442763 0.30770784898735 
C2    C     0.49307068781732 0.71072677756780 0.35064754816031 
C3    C     0.39743524609449 0.80323693704644 0.27465662482650 
C4    C     0.51024298545872 0.83380017404885 0.38742362019408 
C5    C     0.42275673692575 0.93671760521999 0.26839183570565 
C6    C     0.46498935354686 0.93277419844769 0.40465515265913 
C7    C     0.39924796493302 0.90377958446929 0.40964292932049 
C8    C     0.41259574098197 0.55475010368726 0.29400615318104 
C9    C     0.53700050616240 0.59839565017596 0.35893104895313 
C10   C     0.33455690879183 0.77583444301619 0.24203991959962 
C11   C     0.57631421986448 0.85897747782804 0.40853487544301 
C12   C     0.38703099692725 0.03983741587359 0.23532570508021 
C13   C     0.48733158955795 0.07014115973604 0.41756878085513 
C14   C     0.37567877857856 0.76968301871364 0.42511106871353 
C15   C     0.35581423310885 0.01644689132850 0.40532975490506 
C16   C     0.45404082385448 0.44140649737242 0.31210007456743 
C17   C     0.51593781923925 0.46367334702826 0.33933969279504 
C18   C     0.34976447110468 0.53097307353154 0.26085179678462 
C19   C     0.60130367805132 0.62140503519345 0.38774779156601 
C20   C     0.31077595003682 0.63799759815112 0.23860877870358 
C21   C     0.62126764293713 0.75045488223026 0.40759952751942 
C22   C     0.29827835448554 0.88423145931436 0.20994814316634 
C23   C     0.59695945064847 0.99266815569355 0.43012757637217 
C24   C     0.32357860566246 0.01484925710626 0.20700514487232 
C25   C     0.55404415808647 0.09778924701760 0.42935010579058 
C26   C     0.30852069560063 0.74919093255888 0.42191252322903 
C27   C     0.44303072269775 0.17967787126906 0.41870111888738 
C28   C     0.41633941967239 0.66082037531505 0.45079318937588 
C29   C     0.37889017098548 0.15446516316219 0.40774809832076 
C30   C     0.28906480609313 0.99209896054034 0.40190934666712 
C31   C     0.26570690951880 0.86220460906495 0.40705789561227 
C32   C     0.39256266205532 0.53679899598568 0.46845976076076 
C33   C     0.28522701873175 0.61983519936608 0.43859020677745 
C34   C     0.32625190496659 0.51436802612435 0.46104226183562 
H1    H     0.47178992228590 0.95760156261560 0.28909909934678 
H2    H     0.40860058490903 0.14041825410536 0.23045478772697 
H3    H     0.43648519139428 0.33726068451434 0.30105107047821 
H4    H     0.54960556150305 0.37831360653294 0.34808532276552 
H5    H     0.33327563624594 0.42477761958038 0.25374055007258 
H6    H     0.63444871769423 0.53504938843353 0.39145058184504 
H7    H     0.26227524907831 0.61833989438957 0.21517785459554 
H8    H     0.67137463551706 0.77187955049562 0.42495532967737 
H9    H     0.25009272437440 0.86224916665418 0.18603719972953 
H10   H     0.64769371418511 0.01010700598793 0.44541458121200 
H11   H     0.29488212256222 0.09659015069105 0.18195572795978 
H12   H     0.56986358200152 0.20254191603626 0.44158466756619 
H13   H     0.46116624719574 0.28442010130146 0.42595198955396 
H14   H     0.46754506790213 0.67682364260067 0.45851668849329 
H15   H     0.34488047647405 0.23932243633892 0.40462128639833 
H16   H     0.25700434628340 0.08058564214121 0.39568229873480 
H17   H     0.21471309208349 0.84414544474134 0.40435566401022 
H18   H     0.42516509618502 0.45707830968264 0.48969725082393 
H19   H     0.23392101648511 0.60736371199093 0.43565889205368 
H20   H     0.30780123383744 0.41665855020053 0.47540507153183 
