data_stdin
_audit_creation_method 'critic2'
_audit_creation_date 2023-8-11
_chemical_formula_sum 'C34 H20'
_cell_formula_units_Z 4
_cell_length_a         9.4387216504
_cell_length_b        17.4834444830
_cell_length_c        13.6870182261
_cell_angle_alpha        89.9999
_cell_angle_beta        76.6260
_cell_angle_gamma        90.0004
_cell_volume          2197.397851
_space_group_crystal_system monoclinic
_space_group_IT_number 14
_space_group_name_H-M_alt 'P2_1/c'
_space_group_name_Hall '-P 2ybc'
loop_
_symmetry_equiv_pos_site_id
_symmetry_equiv_pos_as_xyz
 1 'x,y,z'
 2 '-x,-y,-z'
 3 '-x,-1/2+y,-1/2-z'
 4 'x,-1/2-y,-1/2+z'
loop_
_atom_site_label
_atom_site_type_symbol
_atom_site_fract_x
_atom_site_fract_y
_atom_site_fract_z
C1    C     0.71694083998741 0.53338653966362 0.82371813188258 
C2    C     0.75944386669012 0.47254852268189 0.75137035346750 
C3    C     0.56745621174075 0.55186480070885 0.87205002288190 
C4    C     0.67454374043824 0.44622839971641 0.68253400674138 
C5    C     0.44944059155374 0.50196034374758 0.87139971983190 
C6    C     0.56553121571409 0.49169226049160 0.65043818054454 
C7    C     0.56027583541837 0.57412574150002 0.65222373180436 
C8    C     0.82908700649609 0.57318570524479 0.85615109975323 
C9    C     0.89602156896853 0.43604318242579 0.74675440006783 
C10   C     0.53768964101635 0.61882042838754 0.93348542150739 
C11   C     0.69813826651646 0.37010306061257 0.64504705309147 
C12   C     0.30917809447157 0.51925446258807 0.92251221968553 
C13   C     0.45230813593911 0.45202440982068 0.61839798933761 
C14   C     0.68703003664974 0.62298051844942 0.64108953830191 
C15   C     0.42326032592801 0.60988442254605 0.65926633107853 
C16   C     0.97274138743566 0.54262753992525 0.83545767641103 
C17   C     0.00137112688920 0.47265686367489 0.79031008241293 
C18   C     0.79582731303912 0.64125550714647 0.91466429980075 
C19   C     0.92635899578122 0.36395425467704 0.69756865419020 
C20   C     0.65530241020780 0.66502615223989 0.94877140428599 
C21   C     0.82513877715365 0.32950307494848 0.65484772727157 
C22   C     0.39276967139562 0.63536375832810 0.98517309444519 
C23   C     0.59319302047893 0.33483262798265 0.59975093627902 
C24   C     0.27945168568131 0.58716054022184 0.97888952939749 
C25   C     0.46885147665974 0.37289329642278 0.59378336901523 
C26   C     0.66710528155190 0.70268373721474 0.66370892095497 
C27   C     0.32215048042363 0.49145492780914 0.61367852058430 
C28   C     0.83059780511980 0.59725218375563 0.59921893510321 
C29   C     0.30391279269193 0.56651220047289 0.64203298095308 
C30   C     0.40705162921319 0.68984749751919 0.68012022226622 
C31   C     0.52354825471357 0.73402262922187 0.68726976611152 
C32   C     0.94865637769011 0.64598521585757 0.58713312776577 
C33   C     0.79031799303490 0.75067201000015 0.65527940791065 
C34   C     0.92945333109769 0.72289969297708 0.61840025429334 
H1    H     0.47037621873017 0.44751857100666 0.83267599485453 
H2    H     0.22197919206255 0.47853419599785 0.92267799656167 
H3    H     0.05731354621182 0.57358728645336 0.86135821869446 
H4    H     0.10769816679444 0.44597905576499 0.78227332003607 
H5    H     0.88504000651112 0.67320280119268 0.93356254728676 
H6    H     0.02941154319127 0.33570660741317 0.69738328460607 
H7    H     0.63083180488766 0.71658663450471 0.99407496809979 
H8    H     0.84264878103267 0.27198036915208 0.62370303326626 
H9    H     0.37355614531597 0.68521802260305 0.03426892459965 
H10   H     0.61008209611351 0.27551897476842 0.57601643166098 
H11   H     0.16910523661434 0.59912607640884 0.02144526558611 
H12   H     0.38276144958508 0.34424403983764 0.56680456175275 
H13   H     0.23551180135849 0.45970555054488 0.59128490410948 
H14   H     0.84788354406310 0.53826793899694 0.57430007013067 
H15   H     0.19994239199755 0.59503184113002 0.64744688577055 
H16   H     0.29883906472143 0.71499675789465 0.69086026701687 
H17   H     0.50971828948743 0.79451296281192 0.70558609993328 
H18   H     0.05673481460080 0.62499204775451 0.55146411453307 
H19   H     0.77224457025958 0.81082080740358 0.67537225992281 
H20   H     0.02338178314984 0.76056626300210 0.61098828034314 
