data_stdin
_audit_creation_method 'critic2'
_audit_creation_date 2023-8-11
_chemical_formula_sum 'C34 H20'
_cell_formula_units_Z 8
_cell_length_a        32.1813710751
_cell_length_b         9.1704032770
_cell_length_c        14.9505133673
_cell_angle_alpha        90.0003
_cell_angle_beta        81.7343
_cell_angle_gamma        90.0009
_cell_volume          4366.305272
_space_group_crystal_system monoclinic
_space_group_IT_number 15
_space_group_name_H-M_alt 'C2/c'
_space_group_name_Hall '-C 2yc'
loop_
_symmetry_equiv_pos_site_id
_symmetry_equiv_pos_as_xyz
 1 'x,y,z'
 2 '-x,-y,-z'
 3 '-x,y,-1/2-z'
 4 'x,-y,-1/2+z'
 5 '-1/2+x,-1/2+y,z'
 6 '-1/2-x,-1/2-y,-z'
 7 '-1/2-x,-1/2+y,-1/2-z'
 8 '-1/2+x,-1/2-y,-1/2+z'
loop_
_atom_site_label
_atom_site_type_symbol
_atom_site_fract_x
_atom_site_fract_y
_atom_site_fract_z
C1    C     0.37964382995558 0.78545890996283 0.63805280971616 
C2    C     0.33629408010342 0.74590832981518 0.63697406012141 
C3    C     0.39623744994092 0.93095229019844 0.62010907024853 
C4    C     0.30800031005679 0.81852566036471 0.58416193015727 
C5    C     0.37037813998638 0.05645922051496 0.62612984966918 
C6    C     0.32081309995029 0.90315788957086 0.50269968007942 
C7    C     0.36047777989973 0.88944555960610 0.44355476976515 
C8    C     0.40746696992263 0.67779509021069 0.66372908028747 
C9    C     0.32031905014182 0.62348011972380 0.69021202998737 
C10   C     0.44070963989374 0.95214789996006 0.60412320995795 
C11   C     0.26409104997978 0.80443537967505 0.61450537025484 
C12   C     0.38716096002320 0.19397341959095 0.60953306996184 
C13   C     0.29188814984858 0.01035540968499 0.47950802999696 
C14   C     0.38594260999785 0.75790873017453 0.43223361000382 
C15   C     0.37435025001471 0.01071421023844 0.38760049031763 
C16   C     0.39115363996958 0.54616939994306 0.70509535994927 
C17   C     0.34868707996779 0.52515625983910 0.72351263015803 
C18   C     0.45172539999523 0.70361455026039 0.65005441010584 
C19   C     0.27618549010936 0.59936204949555 0.70941009995131 
C20   C     0.46803375015898 0.83326709044202 0.61636341972272 
C21   C     0.24890615003898 0.69438923947094 0.67814962999060 
C22   C     0.45707792991681 0.09350020971808 0.58352319997444 
C23   C     0.23515758997114 0.89948715964987 0.58049964000340 
C24   C     0.43079998007765 0.21276604995068 0.58531336984868 
C25   C     0.24906416985519 0.00640338997932 0.51998604001872 
C26   C     0.42741905987542 0.76478731970219 0.38238979981808 
C27   C     0.30550170001212 0.12122507040461 0.41532675985473 
C28   C     0.37077833984776 0.61801559001829 0.46105825012541 
C29   C     0.34652639994703 0.12771144011715 0.37615970030432 
C30   C     0.41581789000007 0.01386475023195 0.33867839006237 
C31   C     0.44204025005240 0.89722297977938 0.33884842972069 
C32   C     0.39544713002550 0.49451646971115 0.44691238978076 
C33   C     0.45287931992594 0.63801757005996 0.37270278990924 
C34   C     0.43741024984843 0.50468593993779 0.40496620015904 
H1    H     0.33674107992458 0.04438175952567 0.64600224969616 
H2    H     0.36660144008413 0.28868458997774 0.61605184976036 
H3    H     0.41273424000279 0.46613877995172 0.72626686029150 
H4    H     0.33607315004429 0.42998778951643 0.76160633996622 
H5    H     0.47216250001415 0.61613519001988 0.66695988976657 
H6    H     0.26465769005397 0.50712148992721 0.75161356018432 
H7    H     0.50184485992744 0.85120933007327 0.60368241001849 
H8    H     0.21507937004666 0.68190142016880 0.69673966998372 
H9    H     0.49097701003097 0.10692166025779 0.56854644990913 
H10   H     0.20194307989846 0.88787726048284 0.60599083999075 
H11   H     0.44369237013532 0.32133189037280 0.57033906997558 
H12   H     0.22740489014096 0.08562339978813 0.49800930969346 
H13   H     0.28286034995973 0.20209765035691 0.39938196998024 
H14   H     0.33874267996264 0.60676637961547 0.49447710998243 
H15   H     0.35785600008668 0.21715488024367 0.33130766000326 
H16   H     0.42582513984527 0.11141183987773 0.29993256010462 
H17   H     0.47366704007194 0.90085472999073 0.30162039019694 
H18   H     0.38226654989089 0.38865215020108 0.46803009014962 
H19   H     0.48482017999456 0.64788206017641 0.33712263020467 
H20   H     0.45690780009156 0.40724358945664 0.39622134982146 
