data_stdin
_audit_creation_method 'critic2'
_audit_creation_date 2023-8-11
_chemical_formula_sum 'C34 H20'
_cell_formula_units_Z 8
_cell_length_a        28.1920932687
_cell_length_b         9.6860910206
_cell_length_c        15.8544823470
_cell_angle_alpha        89.9996
_cell_angle_beta        89.9975
_cell_angle_gamma        90.0008
_cell_volume          4329.402221
_space_group_crystal_system orthorhombic
_space_group_IT_number 61
_space_group_name_H-M_alt 'Pbca'
_space_group_name_Hall '-P 2ac 2ab'
loop_
_symmetry_equiv_pos_site_id
_symmetry_equiv_pos_as_xyz
 1 'x,y,z'
 2 '-x,-y,-z'
 3 '-1/2+x,-1/2-y,-z'
 4 '-1/2-x,-1/2+y,z'
 5 '-x,-1/2+y,-1/2-z'
 6 'x,-1/2-y,-1/2+z'
 7 '-1/2-x,-y,-1/2+z'
 8 '-1/2+x,y,-1/2-z'
loop_
_atom_site_label
_atom_site_type_symbol
_atom_site_fract_x
_atom_site_fract_y
_atom_site_fract_z
C1    C     0.64022614806045 0.75207249179076 0.43697801608655 
C2    C     0.65083736436636 0.83873777697259 0.36544077848914 
C3    C     0.65959717955136 0.61489981411588 0.44894714518886 
C4    C     0.66237339958276 0.78854629287948 0.28208280147516 
C5    C     0.69940237097236 0.56467032251116 0.40370652814511 
C6    C     0.64719625038126 0.65615816803945 0.24970513577113 
C7    C     0.60682280851994 0.58018373461140 0.28078512554378 
C8    C     0.61151492268224 0.80812345772262 0.50207862724802 
C9    C     0.64848654654552 0.98445752477378 0.37672725333815 
C10   C     0.64099790338207 0.52989589208019 0.51490208499891 
C11   C     0.68946684493468 0.87562452997011 0.22815784182193 
C12   C     0.71749570001269 0.43399301734959 0.41777567774403 
C13   C     0.67425564225633 0.59673561928933 0.18313101266275 
C14   C     0.56580604596817 0.64309106801195 0.32019061493309 
C15   C     0.60580679824514 0.43508469563940 0.26794397615477 
C16   C     0.60190958705689 0.95241179348649 0.50367179630234 
C17   C     0.62301718319356 0.03924798196620 0.44677992625181 
C18   C     0.59408276864777 0.72107336502983 0.56776771334585 
C19   C     0.67115002434605 0.07263597961910 0.31698896141610 
C20   C     0.60694868351809 0.58542086238872 0.57226408690092 
C21   C     0.69415816969967 0.01850691284075 0.24834585337348 
C22   C     0.65899581670733 0.39462942842924 0.52608123372755 
C23   C     0.71062852929305 0.81882252911490 0.15420669174286 
C24   C     0.69630594609522 0.34626562257553 0.47789166260822 
C25   C     0.70600144820917 0.68139553250390 0.13592207882302 
C26   C     0.53362517543609 0.55756881894520 0.36629541787786 
C27   C     0.66846168104179 0.45432999286132 0.16371144180210 
C28   C     0.55377255882027 0.78418259168378 0.30983203547806 
C29   C     0.63776626744370 0.37409690388175 0.20927999575970 
C30   C     0.57216857164443 0.35207522156637 0.31244294317276 
C31   C     0.53912639117150 0.41091085118183 0.36420366024813 
C32   C     0.51460823152166 0.84091019144129 0.34918546751732 
C33   C     0.49498152761782 0.61922229711369 0.40914307935449 
C34   C     0.48581225857556 0.75876152970907 0.40172921883115 
H1    H     0.71674677315629 0.63052594100952 0.35764082615019 
H2    H     0.74835714219799 0.39954045177672 0.38229243026930 
H3    H     0.58016293273300 0.99264309735274 0.55481437782047 
H4    H     0.61956572513539 0.15092370158992 0.45222721219832 
H5    H     0.57097102057010 0.76629082176383 0.61543124311732 
H6    H     0.67149789804523 0.18335091332154 0.32902128672406 
H7    H     0.59380461600851 0.51978269733946 0.62289484932530 
H8    H     0.71471118078687 0.08463397412530 0.20648519647140 
H9    H     0.64332945842663 0.33025563251999 0.57503924459751 
H10   H     0.73091191681902 0.88685886197152 0.11322551232575 
H11   H     0.71002792921210 0.24211677251843 0.48688860024710 
H12   H     0.72434556482990 0.63643567216000 0.08201800082051 
H13   H     0.68963701569790 0.40995789541876 0.11316879253850 
H14   H     0.57548594308978 0.84871998497725 0.26919965474054 
H15   H     0.63558105940758 0.26324996042512 0.19872480620614 
H16   H     0.57358771006983 0.24043850166601 0.30425067054616 
H17   H     0.51452016533483 0.34734397228613 0.40024134311280 
H18   H     0.50595784729972 0.94920687488249 0.33885795693641 
H19   H     0.47184159988894 0.55353531665244 0.44665736154880 
H20   H     0.45567381708745 0.80394230894677 0.43461694297942 
