data_stdin
_audit_creation_method 'critic2'
_audit_creation_date 2023-8-11
_chemical_formula_sum 'C34 H20'
_cell_formula_units_Z 4
_cell_length_a         9.5283375907
_cell_length_b        16.9077672600
_cell_length_c        14.1359794624
_cell_angle_alpha        90.0000
_cell_angle_beta        77.8662
_cell_angle_gamma        90.0000
_cell_volume          2226.470504
_space_group_crystal_system monoclinic
_space_group_IT_number 14
_space_group_name_H-M_alt 'P2_1/c'
_space_group_name_Hall '-P 2ybc'
loop_
_symmetry_equiv_pos_site_id
_symmetry_equiv_pos_as_xyz
 1 'x,y,z'
 2 '-x,-y,-z'
 3 '-x,-1/2+y,-1/2-z'
 4 'x,-1/2-y,-1/2+z'
loop_
_atom_site_label
_atom_site_type_symbol
_atom_site_fract_x
_atom_site_fract_y
_atom_site_fract_z
C1    C     0.20809768922504 0.37662571188376 0.72112798347199 
C2    C     0.14688272069161 0.35666182821611 0.82070428927227 
C3    C     0.35862644263171 0.36703571075138 0.67568304034878 
C4    C     0.22312096496401 0.35796567289785 0.89916708001207 
C5    C     0.45525870644904 0.32069338743851 0.71619495390061 
C6    C     0.34805094342390 0.40621301208335 0.90099232655559 
C7    C     0.38462999151818 0.47824964253577 0.84649123369161 
C8    C     0.11291266190928 0.40067718847274 0.66125322354828 
C9    C     0.99903279587387 0.33476623369954 0.84419288120731 
C10   C     0.41007065313007 0.39748458406961 0.58017665622281 
C11   C     0.17081258406392 0.30850717970562 0.98060840692410 
C12   C     0.59656378378430 0.31010348618469 0.66899934608230 
C13   C     0.44257250780723 0.38007207325668 0.96061484684645 
C14   C     0.28086478915694 0.53006114537177 0.81639898806056 
C15   C     0.53024135809999 0.50338111439630 0.82730151882665 
C16   C     0.96202689515537 0.39129840125715 0.69386617636471 
C17   C     0.90834158244406 0.35329204366169 0.77918571320667 
C18   C     0.16812085466812 0.43022239651863 0.56611393745274 
C19   C     0.94212038947437 0.29549462621666 0.93325433045538 
C20   C     0.31206544056890 0.43162610352470 0.52809168905906 
C21   C     0.02899299125718 0.27714862142678 0.99576924061997 
C22   C     0.55642767136198 0.38834620441331 0.53479149370049 
C23   C     0.25945858844736 0.29199937502014 0.04769302620441 
C24   C     0.64923474673470 0.34624248737519 0.57869562824620 
C25   C     0.39560993671290 0.32202857898875 0.03344786728499 
C26   C     0.33049312808599 0.59185074167331 0.74832545853352 
C27   C     0.58303237183470 0.41259130843106 0.94777864073242 
C28   C     0.13195252249862 0.52761177669306 0.85791015321304 
C29   C     0.62861908524332 0.46832566186068 0.87794739514236 
C30   C     0.57632611235987 0.56638072030910 0.76064928749612 
C31   C     0.48094238960737 0.60669034430607 0.71878680368142 
C32   C     0.03597171921659 0.57775614146070 0.82728932540878 
C33   C     0.22942873391315 0.64079678444750 0.71584659201901 
C34   C     0.08399230946700 0.63335328571910 0.75331410687087 
H1    H     0.41646862212148 0.29083232581934 0.78466155304665 
H2    H     0.66666351763472 0.27217953875916 0.70075685590270 
H3    H     0.89084181415939 0.41075016997439 0.64738016482023 
H4    H     0.79443726969595 0.33993227259453 0.80065944478736 
H5    H     0.09185422628552 0.45051107970247 0.52368430067008 
H6    H     0.82935334511033 0.27840964347951 0.94883447182203 
H7    H     0.35362641385960 0.45467293778536 0.45573325947747 
H8    H     0.98973677308446 0.24240251753455 0.06085404439157 
H9    H     0.59395237128308 0.41394986712113 0.46333020014253 
H10   H     0.21863896876444 0.25264839528665 0.10810552685688 
H11   H     0.76117423342251 0.33907654710564 0.54230005511956 
H12   H     0.46760914659343 0.30469558568070 0.08023720281805 
H13   H     0.65385083677267 0.39140089145141 0.99359612884044 
H14   H     0.09265783777334 0.48637034481840 0.91638435350592 
H15   H     0.73870486593070 0.48983063640745 0.86375660120781 
H16   H     0.68995823652172 0.58180648353811 0.74419705975582 
H17   H     0.51743799866207 0.65352902309321 0.66639379116560 
H18   H     0.92274718198497 0.57551062314497 0.86213008542099 
H19   H     0.26937514535488 0.68604728896074 0.66192573496546 
H20   H     0.00791502306467 0.67208864663498 0.72835923187000 
