data_stdin
_audit_creation_method 'critic2'
_audit_creation_date 2023-8-11
_chemical_formula_sum 'C34 H20'
_cell_formula_units_Z 4
_cell_length_a        10.8138097024
_cell_length_b        16.4525071100
_cell_length_c        13.4538799918
_cell_angle_alpha        89.9998
_cell_angle_beta        64.6565
_cell_angle_gamma        89.9996
_cell_volume          2163.268108
_space_group_crystal_system monoclinic
_space_group_IT_number 14
_space_group_name_H-M_alt 'P2_1/c'
_space_group_name_Hall '-P 2ybc'
loop_
_symmetry_equiv_pos_site_id
_symmetry_equiv_pos_as_xyz
 1 'x,y,z'
 2 '-x,-y,-z'
 3 '-x,-1/2+y,-1/2-z'
 4 'x,-1/2-y,-1/2+z'
loop_
_atom_site_label
_atom_site_type_symbol
_atom_site_fract_x
_atom_site_fract_y
_atom_site_fract_z
C1    C     0.71150653884358 0.88615299354218 0.39903456214368 
C2    C     0.66150583764233 0.85512027734026 0.32269490973161 
C3    C     0.71396682536325 0.97158642495570 0.42480487382782 
C4    C     0.66012963375739 0.90025756209966 0.23072081436720 
C5    C     0.63637031234626 0.03137717193938 0.40078179857602 
C6    C     0.75355159948572 0.96561615346576 0.17425597532584 
C7    C     0.88597649653462 0.97725852160482 0.17387978469152 
C8    C     0.75224877266552 0.82904803906096 0.45865670841967 
C9    C     0.61216249267011 0.77353410151556 0.33655470928995 
C10   C     0.78552483010694 0.99633117083835 0.48792946478064 
C11   C     0.56085492056130 0.87778026416011 0.19247885157087 
C12   C     0.63633473665416 0.11166813896780 0.43084206532214 
C13   C     0.71036506335553 0.02341183270336 0.11651281179499 
C14   C     0.96777366969550 0.91262707759681 0.18826131823444 
C15   C     0.94429236644194 0.05630296200667 0.15139588208313 
C16   C     0.71955794320692 0.74535540066364 0.45824152641980 
C17   C     0.64371793617559 0.71942136820961 0.40487598942594 
C18   C     0.82273547784340 0.85582843059272 0.52144748960372 
C19   C     0.53143929061977 0.74685846250532 0.28222381758238 
C20   C     0.84489197501680 0.93650332103080 0.53118695457418 
C21   C     0.49680030335009 0.80003131956553 0.22019926358979 
C22   C     0.78812312430412 0.07952189742928 0.51417573540422 
C23   C     0.52989165765318 0.93239122476284 0.12415336322622 
C24   C     0.71522289895685 0.13655930436115 0.48586003800326 
C25   C     0.59614612950391 0.00541112978421 0.09388045663013 
C26   C     0.08280422983299 0.93276147327210 0.20945419561502 
C27   C     0.78088954252508 0.09867059381168 0.08246942156524 
C28   C     0.94774971071369 0.82964118558867 0.17131617607253 
C29   C     0.88830241575218 0.11677226018043 0.10685012209900 
C30   C     0.06157052309147 0.07430143049818 0.17040334929514 
C31   C     0.12420863592102 0.01562950672450 0.20434898355688 
C32   C     0.02880354479658 0.76927265497814 0.18357045638083 
C33   C     0.16027877408401 0.86968075614591 0.22721439145133 
C34   C     0.13347132709875 0.78907849901128 0.21553697203477 
H1    H     0.57078110922183 0.01328819370731 0.36213384820733 
H2    H     0.57153147428433 0.15535416855683 0.41462513967132 
H3    H     0.74910943106235 0.70298037963884 0.50639081357312 
H4    H     0.61007851412617 0.65642320391942 0.41134482541464 
H5    H     0.85842399403372 0.81010843961133 0.56170800593216 
H6    H     0.49348561013801 0.68458626982840 0.29462430503691 
H7    H     0.90117047998857 0.95643056748367 0.57733719977070 
H8    H     0.42682273000911 0.78221245170828 0.18521433025375 
H9    H     0.84584492611810 0.09726554757389 0.56012436290532 
H10   H     0.44915355968720 0.91575657953823 0.10003844037271 
H11   H     0.71511917602958 0.19992201022902 0.50901454396914 
H12   H     0.56651851438115 0.04970311149255 0.04795491022790 
H13   H     0.74676942526731 0.14189063748669 0.03805381973150 
H14   H     0.86843903741579 0.81349297955158 0.14565430491864 
H15   H     0.93777114351345 0.17602908193484 0.08653396563730 
H16   H     0.09983781901385 0.13638754949866 0.15758461772697 
H17   H     0.21192464092580 0.03030671930998 0.22092542976534 
H18   H     0.01317578967691 0.70611826398530 0.16768744156199 
H19   H     0.24387671128628 0.88632204799235 0.24796360229002 
H20   H     0.19440578799185 0.74083732457347 0.22786971391535 
