data_stdin
_audit_creation_method 'critic2'
_audit_creation_date 2023-8-11
_chemical_formula_sum 'C34 H20'
_cell_formula_units_Z 8
_cell_length_a        28.1912173201
_cell_length_b         9.6852252573
_cell_length_c        15.8528869126
_cell_angle_alpha        90.0001
_cell_angle_beta        90.0002
_cell_angle_gamma        90.0019
_cell_volume          4328.445132
_space_group_crystal_system orthorhombic
_space_group_IT_number 61
_space_group_name_H-M_alt 'Pbca'
_space_group_name_Hall '-P 2ac 2ab'
loop_
_symmetry_equiv_pos_site_id
_symmetry_equiv_pos_as_xyz
 1 'x,y,z'
 2 '-x,-y,-z'
 3 '-1/2+x,-1/2-y,-z'
 4 '-1/2-x,-1/2+y,z'
 5 '-x,-1/2+y,-1/2-z'
 6 'x,-1/2-y,-1/2+z'
 7 '-1/2-x,-y,-1/2+z'
 8 '-1/2+x,y,-1/2-z'
loop_
_atom_site_label
_atom_site_type_symbol
_atom_site_fract_x
_atom_site_fract_y
_atom_site_fract_z
C1    C     0.89319078279736 0.41969135545354 0.28074293143220 
C2    C     0.85280834354455 0.34371189861572 0.24968408419673 
C3    C     0.93420617699945 0.35677037724304 0.32015894925249 
C4    C     0.83763362792165 0.21131572594265 0.28207070020062 
C5    C     0.94622658840292 0.21564846737477 0.30984095996805 
C6    C     0.84916566130885 0.16114429594227 0.36544047574438 
C7    C     0.85977151309628 0.24784687158459 0.43697318553105 
C8    C     0.89421333212671 0.56479896760583 0.26788888949480 
C9    C     0.82573341923534 0.40313704427625 0.18312184685206 
C10   C     0.96638974775527 0.44229564547473 0.36625855766962 
C11   C     0.81054455024251 0.12421101121855 0.22814317415554 
C12   C     0.98536907409662 0.15888836851652 0.34925262401460 
C13   C     0.85151974844561 0.01541468078516 0.37674447512675 
C14   C     0.84040058914393 0.38503778958040 0.44891812861921 
C15   C     0.88847915958123 0.19182038587658 0.50209315406352 
C16   C     0.86222956920473 0.62580122680176 0.20925512629602 
C17   C     0.83151587199278 0.54556339371857 0.16371410193866 
C18   C     0.92787275509083 0.64781332095728 0.31235116510222 
C19   C     0.79398672930990 0.31845908490729 0.13591317163148 
C20   C     0.96091085992848 0.58897454150588 0.36412434610185 
C21   C     0.78937684580348 0.18100865454535 0.15418742756586 
C22   C     0.00501653240883 0.38062135161042 0.40915253858988 
C23   C     0.80586174517646 0.98131453654174 0.24833765071647 
C24   C     0.01416218786819 0.24104565980330 0.40180050794964 
C25   C     0.82886684514183 0.92720307970892 0.31699822597639 
C26   C     0.85900506369930 0.47008775332861 0.51485630913469 
C27   C     0.87698640985289 0.96065366313549 0.44681361978106 
C28   C     0.80059029079393 0.43523915212654 0.40367307986134 
C29   C     0.89808547698900 0.04752451401629 0.50370865280698 
C30   C     0.90591398379416 0.27891141023237 0.56777160816222 
C31   C     0.89305431767925 0.41458755804269 0.57223464098343 
C32   C     0.78249842817544 0.56594072965861 0.41771500118475 
C33   C     0.84100317209432 0.60536963060620 0.52601603648371 
C34   C     0.80368476365845 0.65370150469142 0.47782521776830 
H1    H     0.92451840729093 0.15110066216422 0.26920223167347 
H2    H     0.99399432447630 0.05055177513103 0.33896821378918 
H3    H     0.86440247159591 0.73665917621078 0.19869905790427 
H4    H     0.81031376792156 0.58995379547124 0.11320145881068 
H5    H     0.92647219813786 0.75945609185132 0.30412709739394 
H6    H     0.77563134328011 0.36341511043284 0.08201342511507 
H7    H     0.98552887324965 0.65254132702202 0.40014362397510 
H8    H     0.76909946872083 0.11295220182439 0.11319960158187 
H9    H     0.02815700653679 0.44632132300673 0.44666456166463 
H10   H     0.78531508950052 0.91516306615440 0.20647141698671 
H11   H     0.04428006732597 0.19584859068742 0.43474313181812 
H12   H     0.82852554820195 0.81648097278020 0.32904224329759 
H13   H     0.88044133275078 0.84897005926241 0.45226510444793 
H14   H     0.78324735006587 0.36935107900663 0.35761447986368 
H15   H     0.91983081757909 0.00730977044770 0.55486055993470 
H16   H     0.92902212657668 0.23371568678228 0.61545404649336 
H17   H     0.90620347688895 0.48025805677270 0.62285363667575 
H18   H     0.75162834432892 0.60035391657279 0.38223279265342 
H19   H     0.85667585675574 0.66977431238820 0.57496106564089 
H20   H     0.78996119392837 0.75786400238409 0.48680594882948 
