data_stdin
_audit_creation_method 'critic2'
_audit_creation_date 2023-8-11
_chemical_formula_sum 'C34 H20'
_cell_formula_units_Z 2
_cell_length_a         9.6047785681
_cell_length_b        11.5941067182
_cell_length_c        10.8476933442
_cell_angle_alpha        94.8673
_cell_angle_beta        88.2473
_cell_angle_gamma        68.3788
_cell_volume          1116.446306
_space_group_crystal_system triclinic
_space_group_IT_number 2
_space_group_name_H-M_alt 'P-1'
_space_group_name_Hall '-P 1'
loop_
_symmetry_equiv_pos_site_id
_symmetry_equiv_pos_as_xyz
 1 'x,y,z'
 2 '-x,-y,-z'
loop_
_atom_site_label
_atom_site_type_symbol
_atom_site_fract_x
_atom_site_fract_y
_atom_site_fract_z
C1    C     0.19856002831559 0.80194042997573 0.32196239025015 
C2    C     0.10691385162065 0.93138812013468 0.31258793131242 
C3    C     0.35344644464615 0.75774063364234 0.35495328602305 
C4    C     0.16163921594647 0.02655204404666 0.27991939789731 
C5    C     0.42207488305416 0.83806531810369 0.40733659269079 
C6    C     0.30142196588488 0.00207037311166 0.20858308762588 
C7    C     0.38028652641036 0.89114405163300 0.12520800842299 
C8    C     0.12861526643866 0.71298705296136 0.30930728639260 
C9    C     0.94861450123625 0.96858385087058 0.33547436689476 
C10   C     0.43795701210774 0.62636142602896 0.34852592162766 
C11   C     0.07064928508836 0.15347304619213 0.31981958979242 
C12   C     0.56721836369884 0.79270599689757 0.44404546540886 
C13   C     0.36769727848445 0.09378813669528 0.22338857437487 
C14   C     0.30818563420506 0.81785247195846 0.05720735243305 
C15   C     0.53724719943014 0.85751520063375 0.10001398674818 
C16   C     0.96955589694498 0.75319549724043 0.31092233430091 
C17   C     0.88252491652316 0.87711078627315 0.33412181200794 
C18   C     0.21672527611245 0.58263493824213 0.30164013005037 
C19   C     0.85586953284711 0.09728855115690 0.35832007436660 
C20   C     0.36728639062271 0.54027077113003 0.31627259635046 
C21   C     0.91762701457988 0.18624899408971 0.36090448574085 
C22   C     0.58840805666522 0.58218158336160 0.38259578531533 
C23   C     0.13249300799419 0.24758243379145 0.31597221442448 
C24   C     0.65309214503387 0.66369194439844 0.42895244812706 
C25   C     0.27957357759652 0.21688367220480 0.27685193263752 
C26   C     0.39912088201184 0.70071980103176 0.99072576514961 
C27   C     0.52128476227964 0.06224227564244 0.18492680317980 
C28   C     0.15154977667522 0.86148346580316 0.04281620531920 
C29   C     0.60619372402596 0.94416272225379 0.13358772717645 
C30   C     0.62479151052740 0.73937479210918 0.03447158113450 
C31   C     0.55889569772730 0.66129418870422 0.98560543550736 
C32   C     0.08681693755771 0.78992585672431 0.97572437953464 
C33   C     0.32989257464462 0.62785376795593 0.92474558387593 
C34   C     0.17602555430230 0.67040876121225 0.91873030677106 
H1    H     0.35748459492534 0.93760028535122 0.42211136684152 
H2    H     0.61464499811350 0.85672522139956 0.48750414575476 
H3    H     0.91827029616303 0.68358717277637 0.30076230971966 
H4    H     0.76095447398469 0.90820680523454 0.34622987374361 
H5    H     0.15981273568322 0.51749643070196 0.28482419770153 
H6    H     0.73619692853279 0.12270426296328 0.37952722142362 
H7    H     0.43429414731190 0.44080781899403 0.31079159992103 
H8    H     0.84971573137579 0.28387500769482 0.38928453385360 
H9    H     0.65012765841186 0.48171085110191 0.37578712211461 
H10   H     0.06129290892304 0.34331040604027 0.34963249290272 
H11   H     0.76736949766344 0.62890511155159 0.45828410496491 
H12   H     0.33141423886476 0.28612636683451 0.28249419366070 
H13   H     0.57014512028031 0.13319354577343 0.19817162797241 
H14   H     0.08047834144800 0.95400674623114 0.08401305984097 
H15   H     0.72564291796796 0.91760758462908 0.10996365880295 
H16   H     0.74588401367894 0.71401766920624 0.02247460666840 
H17   H     0.62619232732179 0.57085509227731 0.93654598710452 
H18   H     0.96632600874635 0.82709947948451 0.96524601186338 
H19   H     0.40094794367565 0.53776540928132 0.87714626023983 
H20   H     0.12435151794290 0.61357204515885 0.86733141449701 
