data_stdin
_audit_creation_method 'critic2'
_audit_creation_date 2023-8-11
_chemical_formula_sum 'C34 H20'
_cell_formula_units_Z 8
_cell_length_a        20.6071426839
_cell_length_b         9.6844404793
_cell_length_c        22.2248398664
_cell_angle_alpha        89.9995
_cell_angle_beta        91.3357
_cell_angle_gamma        89.9974
_cell_volume          4434.176079
_space_group_crystal_system monoclinic
_space_group_IT_number 15
_space_group_name_H-M_alt 'C2/c'
_space_group_name_Hall '-C 2yc'
loop_
_symmetry_equiv_pos_site_id
_symmetry_equiv_pos_as_xyz
 1 'x,y,z'
 2 '-x,-y,-z'
 3 '-x,-1/2+y,-1/2-z'
 4 'x,-1/2-y,-1/2+z'
 5 '-1/2+x,-1/2+y,-1/2+z'
 6 '-1/2-x,-1/2-y,-1/2-z'
 7 '-1/2-x,y,-z'
 8 '-1/2+x,-y,z'
loop_
_atom_site_label
_atom_site_type_symbol
_atom_site_fract_x
_atom_site_fract_y
_atom_site_fract_z
C1    C     0.66081657983813 0.78379234028278 0.11439116003002 
C2    C     0.65247327996869 0.77509734993069 0.04997803988111 
C3    C     0.67277096013252 0.66585488994703 0.15331653980867 
C4    C     0.62862107990762 0.65447907950620 0.01822709991399 
C5    C     0.69631776019683 0.53793330976095 0.13191624019683 
C6    C     0.58723001976699 0.55081747951424 0.04417670987742 
C7    C     0.54446411987744 0.57347501046162 0.09389953012100 
C8    C     0.66062656002398 0.91682881026158 0.14134046017421 
C9    C     0.66723540024227 0.89386529967517 0.01502128983415 
C10   C     0.66648889000286 0.68153536954628 0.21692784003686 
C11   C     0.64731516988895 0.63711129974306 0.95742227021043 
C12   C     0.70765930979098 0.42781373956931 0.17036540997189 
C13   C     0.58996978018358 0.41569554045515 0.01892440016197 
C14   C     0.51645250998203 0.70600234999613 0.10936989000692 
C15   C     0.52428529995272 0.45651799041366 0.12732746980431 
C16   C     0.66600485004103 0.03659024993013 0.10466655019949 
C17   C     0.67396727993348 0.02440042029512 0.04384417983023 
C18   C     0.65571638987871 0.92926473048760 0.20510214000789 
C19   C     0.67548408976218 0.87996718029898 0.95182110008008 
C20   C     0.65480560018725 0.81544804999567 0.24128919995689 
C21   C     0.67136245982241 0.75280092041083 0.92516910998109 
C22   C     0.67643641005845 0.56602439995940 0.25506730012996 
C23   C     0.64159208003405 0.50469153020311 0.92986397001904 
C24   C     0.69573178994475 0.44022313033438 0.23230421016899 
C25   C     0.61855428984643 0.39500500002291 0.96177007994235 
C26   C     0.48246251993469 0.72006661959282 0.16449953995460 
C27   C     0.56456895986554 0.30181440972542 0.05119156990937 
C28   C     0.51486691023191 0.82025454978831 0.06955787986317 
C29   C     0.53670890983970 0.32094296048437 0.10579739994118 
C30   C     0.49019556020033 0.47411319961557 0.18198615992215 
C31   C     0.47302446986205 0.60211444003966 0.20171920018177 
C32   C     0.48542329001482 0.94338070034238 0.08444602990132 
C33   C     0.45418174021197 0.84845214025447 0.17958105987838 
C34   C     0.45611484982782 0.95931773991083 0.14064688999926 
H1    H     0.70712876022277 0.52705389044919 0.08455736005835 
H2    H     0.72672497010393 0.33167413993121 0.15242787011374 
H3    H     0.66566960023625 0.13783391051133 0.12601702983969 
H4    H     0.68348959015394 0.11499919968111 0.01632631010361 
H5    H     0.65289049998227 0.03236223992702 0.22445593007610 
H6    H     0.68915782983783 0.97072705003996 0.92612295012298 
H7    H     0.64934750998289 0.82648362049568 0.28965375016589 
H8    H     0.68508315004281 0.73838561959540 0.87859203022478 
H9    H     0.67095954980367 0.57920403950730 0.30335099998837 
H10   H     0.65779514021946 0.49170542004265 0.88392048986241 
H11   H     0.70388042012354 0.35279657048929 0.26242567018406 
H12   H     0.61786055012329 0.29153041967990 0.94254135988989 
H13   H     0.56986178016249 0.19881921955350 0.03249645001615 
H14   H     0.53552656022802 0.80898858009146 0.02541485002525 
H15   H     0.52081687987599 0.23288814022442 0.13219173989137 
H16   H     0.47814691976487 0.38270727031848 0.20800790015167 
H17   H     0.44877026976539 0.61460187044938 0.24442796983506 
H18   H     0.48392184981814 0.02802252021972 0.05222683985083 
H19   H     0.42914857990682 0.85774521970073 0.22202189014290 
H20   H     0.43356976015016 0.05697514027557 0.15248952984178 
