data_stdin
_audit_creation_method 'critic2'
_audit_creation_date 2023-8-11
_chemical_formula_sum 'C34 H20'
_cell_formula_units_Z 8
_cell_length_a        16.9636990100
_cell_length_b         9.8959654821
_cell_length_c        26.3854185305
_cell_angle_alpha        89.9988
_cell_angle_beta        85.6880
_cell_angle_gamma        89.9993
_cell_volume          4416.840094
_space_group_crystal_system monoclinic
_space_group_IT_number 15
_space_group_name_H-M_alt 'C2/c'
_space_group_name_Hall '-C 2yc'
loop_
_symmetry_equiv_pos_site_id
_symmetry_equiv_pos_as_xyz
 1 'x,y,z'
 2 '-1/2-x,-1/2-y,-z'
 3 '-x,y,-1/2-z'
 4 '-1/2+x,-1/2-y,-1/2+z'
 5 '-1/2+x,-1/2+y,z'
 6 '-x,-y,-z'
 7 '-1/2-x,-1/2+y,-1/2-z'
 8 'x,-y,-1/2+z'
loop_
_atom_site_label
_atom_site_type_symbol
_atom_site_fract_x
_atom_site_fract_y
_atom_site_fract_z
C1    C     0.42164107725598 0.60281941373676 0.91994816553442 
C2    C     0.48393099004911 0.69046440548326 0.89890911334989 
C3    C     0.43383535224558 0.46590497757039 0.93749316427363 
C4    C     0.55864158606726 0.64499207775134 0.87447017315152 
C5    C     0.50860086830793 0.41580488480014 0.94919519872816 
C6    C     0.57207947179665 0.51428428992538 0.85056753327906 
C7    C     0.51188987895390 0.43238550868380 0.82979370272654 
C8    C     0.34393212973429 0.65703003443124 0.92765575400639 
C9    C     0.47123209939143 0.83289024618821 0.90224410974983 
C10   C     0.36674583972734 0.38080081251276 0.94896929752224 
C11   C     0.62419650130638 0.73499267577806 0.87452470015194 
C12   C     0.51763927350321 0.28614200115371 0.96730140765164 
C13   C     0.65051142929115 0.46171014997864 0.84880599112167 
C14   C     0.43972765265588 0.48557611244469 0.81132192029097 
C15   C     0.52590011023930 0.29128622334425 0.82458594619804 
C16   C     0.33129224616719 0.79879879520142 0.92414138057726 
C17   C     0.39392801394958 0.88467263588035 0.91476846724227 
C18   C     0.27822905053037 0.56988111835610 0.94027245306468 
C19   C     0.53597449132744 0.92386470371803 0.89344914998261 
C20   C     0.28891017418182 0.43487799696027 0.94778553553974 
C21   C     0.61109628634815 0.87542548612726 0.88366961319085 
C22   C     0.37780265500005 0.24650069810075 0.96553856338042 
C23   C     0.70256846677571 0.68394553752470 0.86577346525470 
C24   C     0.45203452422343 0.19920529721588 0.97447353225041 
C25   C     0.71498359717114 0.54901868515408 0.85725778973002 
C26   C     0.37761058052813 0.39432957230879 0.80094071311546 
C27   C     0.66427238913000 0.32223418553078 0.83860194364929 
C28   C     0.42997907553143 0.62329653193123 0.79859238470239 
C29   C     0.60268234740525 0.23803417977722 0.83012582761505 
C30   C     0.46337655277959 0.20294031300311 0.81263651296262 
C31   C     0.39056632447972 0.25212265423560 0.80378366748985 
C32   C     0.36041710227376 0.67041015614917 0.78089469298946 
C33   C     0.30581630096295 0.44562912548477 0.78465503644447 
C34   C     0.29667478752335 0.58176123245684 0.77539059480979 
H1    H     0.55951560236503 0.48240378344236 0.94584499035783 
H2    H     0.57559894849028 0.25245421108356 0.97726407390303 
H3    H     0.27142756240121 0.83781514187132 0.93147079351529 
H4    H     0.38576660194814 0.99385298012122 0.91552765201616 
H5    H     0.21917486433818 0.61408042769776 0.94350311794816 
H6    H     0.52473853492833 0.03187464731426 0.89731341361160 
H7    H     0.23854297975087 0.36798174867784 0.95577146226985 
H8    H     0.66191862229153 0.94306337632564 0.88094837805947 
H9    H     0.32588942255544 0.18241826298374 0.97257331046657 
H10   H     0.75191767164960 0.75337206015926 0.86824119020260 
H11   H     0.45931716033179 0.09714011112126 0.98876187152041 
H12   H     0.77451165794795 0.50695916693386 0.85450139963834 
H13   H     0.72431319282635 0.28340928748663 0.83895922382652 
H14   H     0.47890548047859 0.69266771353541 0.80174480921293 
H15   H     0.61222759633033 0.12994546208104 0.82482381500934 
H16   H     0.47529430510939 0.09475008307502 0.81080166131833 
H17   H     0.34269165627833 0.18402702904385 0.79573819590494 
H18   H     0.35538754354044 0.77667032769554 0.77077767449932 
H19   H     0.25854394531973 0.37462909212888 0.77809210970555 
H20   H     0.24155388269478 0.61976600338226 0.76230288753504 
