data_stdin
_audit_creation_method 'critic2'
_audit_creation_date 2023-8-11
_chemical_formula_sum 'C34 H20'
_cell_formula_units_Z 8
_cell_length_a        21.2260684827
_cell_length_b         9.6916036759
_cell_length_c        21.5957998534
_cell_angle_alpha        90.0017
_cell_angle_beta        80.7668
_cell_angle_gamma        90.0010
_cell_volume          4385.011873
_space_group_crystal_system monoclinic
_space_group_IT_number 15
_space_group_name_H-M_alt 'C2/c'
_space_group_name_Hall '-C 2yc'
loop_
_symmetry_equiv_pos_site_id
_symmetry_equiv_pos_as_xyz
 1 'x,y,z'
 2 '-x,-y,-z'
 3 '-x,y,-1/2-z'
 4 'x,-y,-1/2+z'
 5 '-1/2+x,-1/2+y,z'
 6 '-1/2-x,-1/2-y,-z'
 7 '-1/2-x,-1/2+y,-1/2-z'
 8 '-1/2+x,-1/2-y,-1/2+z'
loop_
_atom_site_label
_atom_site_type_symbol
_atom_site_fract_x
_atom_site_fract_y
_atom_site_fract_z
C1    C     0.10130705463932 0.59510739947793 0.90916661654965 
C2    C     0.03547600936334 0.56553096643749 0.90431392667778 
C3    C     0.12470045470907 0.72938764439347 0.92468935703250 
C4    C     0.98975291528918 0.66418710922045 0.88748899950408 
C5    C     0.08385690698172 0.83794477647308 0.95035143804770 
C6    C     0.00630362649041 0.78765797070840 0.85079662025132 
C7    C     0.06502465937268 0.80765014565789 0.80772429706742 
C8    C     0.14503703417947 0.48284149937944 0.90464583197705 
C9    C     0.01348338287277 0.42783632095226 0.91710101996293 
C10   C     0.19191147851749 0.75050985429327 0.92145998246772 
C11   C     0.92378086605709 0.63828411487646 0.90912620693664 
C12   C     0.10748671077807 0.96229697902250 0.96787776064187 
C13   C     0.96198572260059 0.89939312275368 0.85949885938710 
C14   C     0.10227678488783 0.69713316537253 0.77461198064183 
C15   C     0.08597726905613 0.94527204799186 0.79410507928126 
C16   C     0.12225191599934 0.34457871204847 0.90683776460811 
C17   C     0.05811897847631 0.31867835590941 0.91786693035792 
C18   C     0.21181695759796 0.50780605163215 0.90123634904145 
C19   C     0.94679029123017 0.39951136587590 0.92930223128733 
C20   C     0.23495220723894 0.63789478113410 0.90653447057888 
C21   C     0.90357735043821 0.50431702106904 0.93068717650160 
C22   C     0.21504833024183 0.88015008821096 0.93807122435098 
C23   C     0.87844898904218 0.74640371564037 0.90883065526884 
C24   C     0.17382740610918 0.98535021117245 0.96041733537997 
C25   C     0.89793774187109 0.87567121794078 0.88891000181335 
C26   C     0.16511159812147 0.72589853733769 0.74222036293354 
C27   C     0.98234751584092 0.03443801835910 0.83975889732034 
C28   C     0.07758358442527 0.56306423602069 0.76815681103777 
C29   C     0.04405148557544 0.05781269330680 0.81221140803010 
C30   C     0.14873754946780 0.97043901370920 0.76107646440441 
C31   C     0.18826338995666 0.86426014038425 0.73889689960908 
C32   C     0.11387387058544 0.46074747143494 0.73514414488662 
C33   C     0.20201460497841 0.61826559119437 0.71025311568070 
C34   C     0.17731268878157 0.48711356543930 0.70710560165918 
H1    H     0.03263741032290 0.82150410626947 0.95813562251637 
H2    H     0.07478460517244 0.04191966948639 0.98902658295417 
H3    H     0.15652192318929 0.26010611844411 0.90350677461923 
H4    H     0.04019815150300 0.21373528698762 0.92498474183985 
H5    H     0.24407205939823 0.41961552751384 0.89486891990284 
H6    H     0.93128579192244 0.29452517489627 0.94145664312218 
H7    H     0.28597810547127 0.65639573806801 0.90381445139312 
H8    H     0.85294079074346 0.48649702000152 0.94651661991191 
H9    H     0.26639571009469 0.89306971395866 0.93507569110154 
H10   H     0.82848609662220 0.72444861478992 0.92673484881552 
H11   H     0.19209838430576 0.08339808632759 0.97466320894587 
H12   H     0.86459746574566 0.96177649113255 0.89308825391685 
H13   H     0.94828186204779 0.11910364581115 0.84858968806164 
H14   H     0.02860518072653 0.54109333048350 0.78872446247110 
H15   H     0.06108792238902 0.16223506012894 0.80091335974215 
H16   H     0.16470497258022 0.07703763982138 0.75411182854375 
H17   H     0.23672176016203 0.88494656791949 0.71561968028475 
H18   H     0.09286310333631 0.35959518256990 0.73010495126727 
H19   H     0.25020319535088 0.64136030483701 0.68665242919675 
H20   H     0.20643768336719 0.40594209112632 0.68213837978869 
