data_stdin
_audit_creation_method 'critic2'
_audit_creation_date 2023-8-11
_chemical_formula_sum 'C34 H20'
_cell_formula_units_Z 2
_cell_length_a         9.6030520623
_cell_length_b        10.6976661414
_cell_length_c        11.3848336387
_cell_angle_alpha        79.4678
_cell_angle_beta       101.0782
_cell_angle_gamma        99.2888
_cell_volume          1118.727278
_space_group_crystal_system triclinic
_space_group_IT_number 2
_space_group_name_H-M_alt 'P-1'
_space_group_name_Hall '-P 1'
loop_
_symmetry_equiv_pos_site_id
_symmetry_equiv_pos_as_xyz
 1 'x,y,z'
 2 '-x,-y,-z'
loop_
_atom_site_label
_atom_site_type_symbol
_atom_site_fract_x
_atom_site_fract_y
_atom_site_fract_z
C1    C     0.59308879639055 0.16447344737358 0.83627539884068 
C2    C     0.61807167289186 0.19045439590441 0.95929751600074 
C3    C     0.70091945647864 0.13065548896736 0.77857456122990 
C4    C     0.75401585125515 0.24305083002313 0.02242478547256 
C5    C     0.83163220211348 0.09088221549077 0.84418775705245 
C6    C     0.86680553072526 0.31915835279262 0.96314834066934 
C7    C     0.84550126614084 0.39380271257083 0.84343433924427 
C8    C     0.45098198377170 0.16050406954643 0.77115555751737 
C9    C     0.49949085393328 0.16508158567654 0.02249226871276 
C10   C     0.66975025169120 0.12278666145765 0.65179668461250 
C11   C     0.77849043707715 0.21866750325392 0.15158762600500 
C12   C     0.93001640748420 0.05413042868607 0.78767723440672 
C13   C     0.00956202491035 0.31881381008156 0.02749583204083 
C14   C     0.71670644076936 0.45135860654773 0.78906019025283 
C15   C     0.96294712166426 0.42311485027323 0.77949676909285 
C16   C     0.33472581718773 0.15701990424534 0.83312570334552 
C17   C     0.35779961475493 0.14841825499059 0.95650703531242 
C18   C     0.42367177990426 0.15324724334767 0.64464691748673 
C19   C     0.52351703913806 0.15960215734676 0.15062323811544 
C20   C     0.53032023615789 0.14033691512275 0.58551046667671 
C21   C     0.65993982605474 0.17593797926967 0.21360324354698 
C22   C     0.77435068194215 0.08876284426930 0.59518357610901 
C23   C     0.92086300498150 0.23767082498480 0.21618995266255 
C24   C     0.90326091101298 0.05615494572649 0.66126204236726 
C25   C     0.03382631015983 0.27611464514431 0.15495507116255 
C26   C     0.70131191056854 0.51221297566985 0.66526864929591 
C27   C     0.12642037188375 0.36000872936456 0.96333685558925 
C28   C     0.61097454429276 0.46378858027016 0.85617603770870 
C29   C     0.10252664984657 0.40070585545220 0.84094540396031 
C30   C     0.94286860263964 0.48159602573531 0.65529289643533 
C31   C     0.81472167408830 0.52012309822184 0.59836238653844 
C32   C     0.49329695122314 0.52540498699568 0.80328795642307 
C33   C     0.57818733025193 0.57240080724649 0.61229991389054 
C34   C     0.47449658413176 0.57789500168642 0.67931873846915 
H1    H     0.85370654417000 0.08646240019811 0.94185264962073 
H2    H     0.02740168219681 0.02091828601975 0.84155347814035 
H3    H     0.22662805554249 0.15413207485531 0.78149813658818 
H4    H     0.26856916497678 0.13365171847635 0.00588479622608 
H5    H     0.31453128725329 0.15719417712842 0.59597393359726 
H6    H     0.43174403584687 0.13697488750031 0.19756873545706 
H7    H     0.50826358718302 0.13613833068333 0.48867323858718 
H8    H     0.67944188130978 0.16159325679273 0.31223084916220 
H9    H     0.74847941024219 0.08403400937389 0.49849558400586 
H10   H     0.93858340947214 0.21682790239362 0.31485657176404 
H11   H     0.98183228036095 0.02800358077695 0.61706529726741 
H12   H     0.14360038198797 0.28083260757024 0.20320563804137 
H13   H     0.23456970248323 0.35494661080303 0.01315499881476 
H14   H     0.62457014404611 0.42679747975137 0.95233588973567 
H15   H     0.19115095567570 0.42383689778332 0.79029374838845 
H16   H     0.03402518714968 0.49763658174637 0.60782180945963 
H17   H     0.79946250332473 0.56488330632799 0.50353740381546 
H18   H     0.41612855696925 0.53561080806203 0.85839425989547 
H19   H     0.56775807955123 0.61667336962780 0.51759084732366 
H20   H     0.38101783630805 0.62546474480952 0.63744398644044 
