data_stdin
_audit_creation_method 'critic2'
_audit_creation_date 2023-8-11
_chemical_formula_sum 'C34 H20'
_cell_formula_units_Z 1
_cell_length_a         9.7241100985
_cell_length_b         8.1545316616
_cell_length_c         8.3497665738
_cell_angle_alpha       106.6835
_cell_angle_beta        70.7295
_cell_angle_gamma        75.4352
_cell_volume           553.069854
_space_group_crystal_system triclinic
_space_group_IT_number 1
_space_group_name_H-M_alt 'P1'
_space_group_name_Hall 'P 1'
loop_
_symmetry_equiv_pos_site_id
_symmetry_equiv_pos_as_xyz
 1 'x,y,z'
loop_
_atom_site_label
_atom_site_type_symbol
_atom_site_fract_x
_atom_site_fract_y
_atom_site_fract_z
C1    C     0.00277899114242 0.99910746060415 0.99719182528138 
C2    C     0.98021420945607 0.10095061810641 0.18299867203249 
C3    C     0.87702070825092 0.01302900612923 0.93827710981938 
C4    C     0.83450518170862 0.17284312002540 0.34998269628228 
C5    C     0.72710891894660 0.16053013256669 0.04000263565441 
C6    C     0.71231905832326 0.09788837899146 0.37332618992946 
C7    C     0.73606183374776 0.90923083756880 0.27019861139891 
C8    C     0.15971190275287 0.88713304529238 0.85865810851651 
C9    C     0.11192135770078 0.13231900356521 0.20546191511230 
C10   C     0.90833047836146 0.88283846492100 0.76093771213932 
C11   C     0.80998909362975 0.32902204900035 0.50366624993886 
C12   C     0.61156562876091 0.17151999729442 0.97717419520532 
C13   C     0.55606345658212 0.22180101204250 0.50788025275145 
C14   C     0.88555545599121 0.75214382425071 0.18157850393269 
C15   C     0.60226156294414 0.87147734078134 0.26376690095738 
C16   C     0.29033926119042 0.90090758356450 0.89497112396188 
C17   C     0.26664065432071 0.02795585341604 0.05970330720892 
C18   C     0.18741072372756 0.76227325273067 0.68094920956244 
C19   C     0.08860612500896 0.26966140465364 0.37323419025233 
C20   C     0.06539021256050 0.75296774372286 0.63722663600944 
C21   C     0.94009112567368 0.37512087194631 0.51207380158819 
C22   C     0.78597148823419 0.89252051156548 0.70323232506400 
C23   C     0.65533696459549 0.43904669287884 0.64868802649100 
C24   C     0.63921125079407 0.03396248773040 0.80978244866421 
C25   C     0.53036828865047 0.39413347280968 0.64246118960373 
C26   C     0.90202077752404 0.57944908058315 0.05454522616342 
C27   C     0.42518510820715 0.17283824310320 0.50995763088953 
C28   C     0.01372659585379 0.75517158284728 0.22598112808203 
C29   C     0.44737275702843 0.00666618343940 0.38421479709204 
C30   C     0.62248627298337 0.69642820113028 0.13799744742237 
C31   C     0.76830285368791 0.55847883625228 0.02942622116599 
C32   C     0.15416147432114 0.60263188207823 0.13851345818375 
C33   C     0.04795237299950 0.42635402237717 0.96389688313303 
C34   C     0.17329399014629 0.43793826919068 0.00310313824941 
H1    H     0.70398962461007 0.27086289512845 0.16696751864584 
H2    H     0.49896996084689 0.28930955660234 0.05727635942900 
H3    H     0.40901979220303 0.81535167929726 0.78550148630228 
H4    H     0.36581860935292 0.04902641552365 0.08309139249609 
H5    H     0.30903099959206 0.67363030437472 0.58126855785584 
H6    H     0.19082538004079 0.29429821972874 0.38409586399956 
H7    H     0.08644573213595 0.65475558563732 0.50339876721474 
H8    H     0.91925966957957 0.49062380180137 0.63429688371536 
H9    H     0.81166727120088 0.79003045278157 0.56922549007522 
H10   H     0.63903180066467 0.56250800412949 0.75992126010358 
H11   H     0.54777755577221 0.04266737437196 0.76112544333284 
H12   H     0.41019396383547 0.48388290424666 0.74538941478247 
H13   H     0.30727209674629 0.27219348091027 0.61133570034301 
H14   H     0.00055728292300 0.87826011571844 0.33401521678275 
H15   H     0.34698705756051 0.97226030423282 0.37996465019869 
H16   H     0.51784113176081 0.67660859441332 0.12958854491554 
H17   H     0.78325003993414 0.42686585755877 0.93099679239241 
H18   H     0.25002212872735 0.61031793699229 0.17665895991737 
H19   H     0.05745124665948 0.29656132345079 0.86763828112545 
H20   H     0.28389819785094 0.31821925798588 0.93488366166919 
