data_stdin
_audit_creation_method 'critic2'
_audit_creation_date 2023-8-11
_chemical_formula_sum 'C34 H20'
_cell_formula_units_Z 4
_cell_length_a         9.6974128958
_cell_length_b        14.6433259500
_cell_length_c        16.1723907084
_cell_angle_alpha        90.0000
_cell_angle_beta        74.8343
_cell_angle_gamma        90.0008
_cell_volume          2216.538153
_space_group_crystal_system monoclinic
_space_group_IT_number 14
_space_group_name_H-M_alt 'P2_1/c'
_space_group_name_Hall '-P 2ybc'
loop_
_symmetry_equiv_pos_site_id
_symmetry_equiv_pos_as_xyz
 1 'x,y,z'
 2 '-x,-y,-z'
 3 '-x,-1/2+y,-1/2-z'
 4 'x,-1/2-y,-1/2+z'
loop_
_atom_site_label
_atom_site_type_symbol
_atom_site_fract_x
_atom_site_fract_y
_atom_site_fract_z
C1    C     0.39019391509415 0.81334902076740 0.98323207861389 
C2    C     0.38839842714401 0.87122911375470 0.05580950463016 
C3    C     0.27173990575097 0.80346823136309 0.94473497273720 
C4    C     0.26133848454398 0.89726792529341 0.12122104802813 
C5    C     0.15846492342542 0.86736579410200 0.95694126781537 
C6    C     0.12884160291184 0.84622086427924 0.14250974486278 
C7    C     0.11658598124213 0.75016780664099 0.12568533563000 
C8    C     0.51923125004562 0.76690296717751 0.94338798094998 
C9    C     0.52200438939875 0.90387235522049 0.06526327248476 
C10   C     0.27388469268774 0.73075042003315 0.88535049856152 
C11   C     0.26731845381603 0.97867561364197 0.16851015626629 
C12   C     0.04895176547419 0.85665264732647 0.91765026312356 
C13   C     0.00074335347411 0.89464957662241 0.18193910844546 
C14   C     0.22949821430717 0.68409023786092 0.12119821726729 
C15   C     0.98262450493055 0.71719219465046 0.11806418006108 
C16   C     0.64854027752480 0.79119654223238 0.96375875169269 
C17   C     0.65128305493244 0.86250152980416 0.01797460404467 
C18   C     0.52023898673801 0.69763341132060 0.88102496027628 
C19   C     0.52590051302319 0.97760166614316 0.12219485457361 
C20   C     0.39955378936245 0.67644420356115 0.85650267249249 
C21   C     0.40211167914992 0.01840341543683 0.16700220504033 
C22   C     0.15639081414400 0.71817858619745 0.84988362354305 
C23   C     0.13858854520637 0.01960319622723 0.21745249047748 
C24   C     0.04544760101517 0.78014767308976 0.86535153955830 
C25   C     0.00869682551032 0.98210888807953 0.21895405637275 
C26   C     0.21614185892607 0.59484265947630 0.08820185800447 
C27   C     0.86566498181829 0.85551580094241 0.18330845161014 
C28   C     0.34750205810928 0.70064147298686 0.15537932800708 
C29   C     0.85799539157282 0.77221778692374 0.14623600470626 
C30   C     0.97280615749680 0.62767688986000 0.08490574406607 
C31   C     0.08740593061914 0.56998720821542 0.06682197815313 
C32   C     0.45191770992162 0.63548079740768 0.15150937072776 
C33   C     0.32684551489232 0.53021868356989 0.08251273931460 
C34   C     0.44412496095649 0.55021243465695 0.11270309109353 
H1    H     0.15920621318081 0.92704272508352 0.99673274397074 
H2    H     0.96607537774735 0.90844392820459 0.92597626128106 
H3    H     0.74640357480297 0.75513842800601 0.93224258705159 
H4    H     0.75164448910919 0.88614530635629 0.02860997845247 
H5    H     0.62006686308564 0.66157385144776 0.85375844548474 
H6    H     0.62924122132795 0.00394648084331 0.12574616447613 
H7    H     0.40001358694098 0.62200027554639 0.81039406536755 
H8    H     0.40470432242120 0.08018760764992 0.20399390737130 
H9    H     0.15794018712572 0.66046319848140 0.80716837374651 
H10   H     0.14515437118733 0.08339607896833 0.25073391125392 
H11   H     0.95923571526827 0.77197356355089 0.83426702443908 
H12   H     0.90995011740825 0.01721753119521 0.25043340646920 
H13   H     0.76950106914962 0.89508555783348 0.21114206344154 
H14   H     0.35501672865844 0.76508765883052 0.18686258831577 
H15   H     0.75591055450530 0.74550854131196 0.14072431042957 
H16   H     0.87036302820704 0.60616021366616 0.07543837707934 
H17   H     0.07898455762688 0.50172117316421 0.04192566900810 
H18   H     0.54018715447903 0.65047015945512 0.17937972283899 
H19   H     0.31693715827785 0.46333374603762 0.05503278240452 
H20   H     0.52806927827750 0.49963087119176 0.10778989660898 
