data_stdin
_audit_creation_method 'critic2'
_audit_creation_date 2023-8-11
_chemical_formula_sum 'C34 H20'
_cell_formula_units_Z 4
_cell_length_a         9.5782870887
_cell_length_b        14.0232389632
_cell_length_c        16.7097508101
_cell_angle_alpha        89.9990
_cell_angle_beta        74.8060
_cell_angle_gamma        90.0000
_cell_volume          2165.974141
_space_group_crystal_system monoclinic
_space_group_IT_number 14
_space_group_name_H-M_alt 'P2_1/c'
_space_group_name_Hall '-P 2ybc'
loop_
_symmetry_equiv_pos_site_id
_symmetry_equiv_pos_as_xyz
 1 'x,y,z'
 2 '-x,-y,-z'
 3 '-x,-1/2+y,-1/2-z'
 4 'x,-1/2-y,-1/2+z'
loop_
_atom_site_label
_atom_site_type_symbol
_atom_site_fract_x
_atom_site_fract_y
_atom_site_fract_z
C1    C     0.60904548650015 0.22576352166159 0.62686907725912 
C2    C     0.58261759319169 0.32601286008460 0.64469194368129 
C3    C     0.73999638080115 0.17604470925988 0.63051789864629 
C4    C     0.69407023937635 0.39799169906249 0.63439807114042 
C5    C     0.83829478980950 0.21216886154005 0.67322057092134 
C6    C     0.83765519894281 0.38937851312798 0.57916963333152 
C7    C     0.87425806608147 0.32959816575057 0.50642715436531 
C8    C     0.49610840486409 0.17064828056075 0.60931346106640 
C9    C     0.43591366109179 0.35686365737397 0.67303917720245 
C10   C     0.76597321002427 0.08205839178752 0.59665805376076 
C11   C     0.66044822759103 0.48335246625051 0.68185828796453 
C12   C     0.96004675612090 0.16191590247830 0.67756512621797 
C13   C     0.95092040117815 0.44204559440412 0.59958220893044 
C14   C     0.77253579160598 0.30147972869298 0.46005488832882 
C15   C     0.02021508732269 0.29959293168744 0.47627166882498 
C16   C     0.35369052591770 0.20891289289342 0.62564449854932 
C17   C     0.32267188606469 0.29607464875711 0.66288920010813 
C18   C     0.52368918327124 0.07564732000590 0.57850374441357 
C19   C     0.40402970180833 0.44918202071464 0.70890686330383 
C20   C     0.65649257894368 0.03459206076163 0.56808999842369 
C21   C     0.51300400707054 0.50759714509443 0.71842085071047 
C22   C     0.89515945887306 0.03389345871022 0.59811472076281 
C23   C     0.77489612681639 0.54326541567877 0.69213958071323 
C24   C     0.99173307893053 0.07313878689608 0.63736494708495 
C25   C     0.91622509706326 0.51852782771447 0.65760540977225 
C26   C     0.80925043737053 0.22454725551519 0.40215375144563 
C27   C     0.09757822109767 0.41720305529086 0.56200732862321 
C28   C     0.64192816863195 0.35096848865257 0.46420862002743 
C29   C     0.12995623041554 0.34287769354051 0.50716639523143 
C30   C     0.05685362354003 0.22824695487533 0.41317065974549 
C31   C     0.95358015713766 0.18831942703728 0.38066423101817 
C32   C     0.54626287824360 0.32001165870868 0.42054802701996 
C33   C     0.70505418678834 0.19005924325549 0.36280698059135 
C34   C     0.57433497330084 0.23626186265238 0.37237458816334 
H1    H     0.81536915880145 0.27974207175886 0.70531087406723 
H2    H     0.03046450475297 0.19117502840605 0.71310235818336 
H3    H     0.26871325672948 0.16592457590750 0.61126036029296 
H4    H     0.21185191544112 0.32235003441734 0.68140451266940 
H5    H     0.43541625831229 0.03578320352232 0.56457689968025 
H6    H     0.29141733568549 0.47128957470326 0.73133883984166 
H7    H     0.67718563255686 0.96229734888045 0.54391882493739 
H8    H     0.48857769213604 0.57524119947338 0.75092919089032 
H9    H     0.91545538927706 0.96393521748399 0.56922917522468 
H10   H     0.74723158702654 0.60709017552743 0.73020284902307 
H11   H     0.08939646960050 0.03436651521582 0.63933059606382 
H12   H     0.00441220428391 0.56006355624423 0.66999567907272 
H13   H     0.18280848942093 0.45663478736616 0.57977161359933 
H14   H     0.61752704625331 0.41534766527453 0.50148041881396 
H15   H     0.24103698409263 0.31868512840139 0.48344285203753 
H16   H     0.16949544011082 0.20569384259921 0.39187886328734 
H17   H     0.98141828014158 0.13168689976025 0.33455164580970 
H18   H     0.44960389163692 0.36175907860177 0.42277190583384 
H19   H     0.73164776299876 0.12800808723412 0.32230395347968 
H20   H     0.49694516762869 0.21029566948379 0.33990403381082 
