data_stdin
_audit_creation_method 'critic2'
_audit_creation_date 2023-8-11
_chemical_formula_sum 'C34 H20'
_cell_formula_units_Z 4
_cell_length_a         9.6298001224
_cell_length_b        16.6915890000
_cell_length_c        13.9067339051
_cell_angle_alpha        90.0000
_cell_angle_beta        78.5125
_cell_angle_gamma        89.9999
_cell_volume          2190.544680
_space_group_crystal_system monoclinic
_space_group_IT_number 14
_space_group_name_H-M_alt 'P2_1/c'
_space_group_name_Hall '-P 2ybc'
loop_
_symmetry_equiv_pos_site_id
_symmetry_equiv_pos_as_xyz
 1 'x,y,z'
 2 '-x,-y,-z'
 3 '-x,-1/2+y,-1/2-z'
 4 'x,-1/2-y,-1/2+z'
loop_
_atom_site_label
_atom_site_type_symbol
_atom_site_fract_x
_atom_site_fract_y
_atom_site_fract_z
C1    C     0.81434405943726 0.95383705976304 0.13487533262049 
C2    C     0.91341604749492 0.89443982942366 0.08655335187065 
C3    C     0.84673212617334 0.01365782358273 0.20305210858000 
C4    C     0.03673306328936 0.86608689051622 0.12170104393057 
C5    C     0.98670351195234 0.03404701587123 0.21083902192809 
C6    C     0.05118797241020 0.86609950492710 0.22329446202830 
C7    C     0.93464130482941 0.86406078830718 0.30660698054219 
C8    C     0.67827181566668 0.95747237386505 0.10970707750002 
C9    C     0.88823390673893 0.85953611850681 0.99791079940908 
C10   C     0.73419161241930 0.06009980165987 0.25928181914766 
C11   C     0.15225487174529 0.83541555598128 0.05102564519453 
C12   C     0.01404231963847 0.09158327467907 0.27603424056183 
C13   C     0.19133610639734 0.86978558224368 0.24222097455789 
C14   C     0.79741225362766 0.82886650273793 0.30479800076434 
C15   C     0.95872675476185 0.89221887700407 0.39834186307536 
C16   C     0.65028262799166 0.91369029983579 0.02779185911586 
C17   C     0.75473197327044 0.86963738745814 0.97035658171363 
C18   C     0.56882557284413 0.00571666486000 0.16599335733063 
C19   C     0.99737133551863 0.81535476286397 0.93595976585137 
C20   C     0.59383967712119 0.05189738611118 0.24169276790899 
C21   C     0.12924385565998 0.81008084143293 0.95770227026622 
C22   C     0.76462448554196 0.11819216420892 0.32638606534584 
C23   C     0.28877486117552 0.82902409030501 0.07524550541193 
C24   C     0.90220594939911 0.13336260915943 0.33594532058917 
C25   C     0.30944914539259 0.85173657476394 0.16589509630043 
C26   C     0.68288607652397 0.84072171141719 0.38655233820897 
C27   C     0.21237932259778 0.89272049697109 0.33688158775693 
C28   C     0.77372733869412 0.77623295177594 0.22976415052248 
C29   C     0.09908831819947 0.90867277336651 0.41087490809107 
C30   C     0.84232103060343 0.90264606495544 0.47889228890915 
C31   C     0.70772200980521 0.88196103521363 0.47142469237920 
C32   C     0.64282662937334 0.74173380657599 0.23149220223056 
C33   C     0.54876303017958 0.80632122381502 0.38546012343447 
C34   C     0.52801620403390 0.75779547300303 0.30911055081202 
H1    H     0.07519737778151 0.00613084959513 0.16189637918723 
H2    H     0.12347987075258 0.10636377674517 0.27834803418857 
H3    H     0.54566799570511 0.91859403716743 0.00966535543254 
H4    H     0.73670625132657 0.84015274752321 0.90402375318281 
H5    H     0.46394745213781 0.00403044674212 0.14770149628526 
H6    H     0.97615841128984 0.79019926191416 0.86830631107682 
H7    H     0.50863203859727 0.08664870762800 0.28588593315868 
H8    H     0.21628432821270 0.78311273126012 0.90595403304105 
H9    H     0.67751521595255 0.15317194509654 0.36824690997824 
H10   H     0.37722365209209 0.80903338669846 0.01878085328295 
H11   H     0.92366128783441 0.17904542358386 0.38691912782597 
H12   H     0.41522119628099 0.85302416170932 0.18248106962475 
H13   H     0.32065636176832 0.89927437384680 0.34796787061611 
H14   H     0.86076703074978 0.76136511636698 0.17008835159139 
H15   H     0.11488471145702 0.92964321173312 0.48202802664009 
H16   H     0.86373154710383 0.92831029442921 0.54645803835304 
H17   H     0.61850276112854 0.89288347734321 0.53177501175014 
H18   H     0.62968065348211 0.70206000355690 0.17178990244394 
H19   H     0.46257098709098 0.81738712001946 0.44785669581418 
H20   H     0.42507171762745 0.73077799043320 0.30932044231635 
