data_stdin
_audit_creation_method 'critic2'
_audit_creation_date 2023-8-11
_chemical_formula_sum 'C10 H8'
_cell_formula_units_Z 8
_cell_length_a        14.5596104000
_cell_length_b         8.6528482404
_cell_length_c        11.7000601000
_cell_angle_alpha        90.0000
_cell_angle_beta        90.0000
_cell_angle_gamma        90.0006
_cell_volume          1473.998132
_space_group_crystal_system orthorhombic
_space_group_IT_number 61
_space_group_name_H-M_alt 'Pbca'
_space_group_name_Hall '-P 2ac 2ab'
loop_
_symmetry_equiv_pos_site_id
_symmetry_equiv_pos_as_xyz
 1 'x,y,z'
 2 '-x,-y,-z'
 3 '-1/2+x,-1/2-y,-z'
 4 '-1/2-x,-1/2+y,z'
 5 '-x,-1/2+y,-1/2-z'
 6 'x,-1/2-y,-1/2+z'
 7 '-1/2-x,-y,-1/2+z'
 8 '-1/2+x,y,-1/2-z'
loop_
_atom_site_label
_atom_site_type_symbol
_atom_site_fract_x
_atom_site_fract_y
_atom_site_fract_z
C1    C     0.52917178001827 0.29879575017475 0.48060047959612 
C2    C     0.43927291027863 0.26159842950295 0.50544798019246 
C3    C     0.39497129969404 0.13968319954800 0.44661436011977 
C4    C     0.44131145975072 0.05575104004898 0.36466585980031 
C5    C     0.53404205005750 0.09077197052390 0.33750573002524 
C6    C     0.57860659032243 0.21582720980231 0.39595512007843 
C7    C     0.67104730021757 0.25167045960995 0.36769513963371 
C8    C     0.71813671013899 0.16616941018307 0.28719375993214 
C9    C     0.67457394033555 0.04076204969684 0.23143106980283 
C10   C     0.58450154989012 0.00414441986122 0.25589855959789 
H1    H     0.56354456003183 0.39153645999616 0.52666377965955 
H2    H     0.40236136980321 0.32511233967477 0.57140722984222 
H3    H     0.32428862972903 0.11050549021381 0.46792145979019 
H4    H     0.40801447999474 0.95964824994951 0.32087039984142 
H5    H     0.70429748012465 0.34882754051179 0.41016509971313 
H6    H     0.78887885998932 0.19514803027803 0.26592970959014 
H7    H     0.71255386984374 0.97268633991410 0.16892554971638 
H8    H     0.55083601033972 0.90805814967538 0.21281820960611 
