data_stdin
_audit_creation_method 'critic2'
_audit_creation_date 2023-8-11
_chemical_formula_sum 'C10 H8'
_cell_formula_units_Z 2
_cell_length_a         8.4878060066
_cell_length_b         7.4985518300
_cell_length_c         5.9772442245
_cell_angle_alpha        90.0000
_cell_angle_beta        70.3267
_cell_angle_gamma        90.0000
_cell_volume           358.222643
_space_group_crystal_system triclinic
_space_group_IT_number 1
_space_group_name_H-M_alt 'P 1'
_space_group_name_Hall 'P 1'
loop_
_symmetry_equiv_pos_site_id
_symmetry_equiv_pos_as_xyz
 1 'x,y,z'
loop_
_atom_site_label
_atom_site_type_symbol
_atom_site_fract_x
_atom_site_fract_y
_atom_site_fract_z
C1    C     0.01639820958309 0.65525821971129 0.98813769930230 
C2    C     0.01639820931664 0.34474164027195 0.48813760065213 
C3    C     0.17876001999305 0.68721364064098 0.97751365019047 
C4    C     0.17876005992342 0.31278641006995 0.47751353923884 
C5    C     0.21172750996211 0.77463558997867 0.16695572070144 
C6    C     0.21172764993511 0.22536466962280 0.66695559962078 
C7    C     0.08182921956408 0.82666287022153 0.36647551938702 
C8    C     0.08182942997807 0.17333743004780 0.86647542051499 
C9    C     0.91323753037833 0.79328695036478 0.38454912042007 
C10   C     0.91323770044161 0.20671316055606 0.88454903945191 
C11   C     0.87974171020803 0.70670345002929 0.19077809961054 
C12   C     0.87974178008074 0.29329641020622 0.69077800912111 
C13   C     0.71114950040305 0.67333024002905 0.20885119039736 
C14   C     0.71114954004299 0.32666940018523 0.70885108933755 
C15   C     0.58125190034003 0.72536139968733 0.40836972057502 
C16   C     0.58125200019536 0.27463829052931 0.90836964008815 
C17   C     0.61421959028582 0.81278409050137 0.59781114016939 
C18   C     0.61421979040008 0.18721588995455 0.09781110977056 
C19   C     0.77658147997421 0.84473670955689 0.58718791005694 
C20   C     0.77658171977345 0.15526348963248 0.08718787976229 
H1    H     0.99136047013384 0.58921761952994 0.84148340950845 
H2    H     0.99136038936909 0.41078207953046 0.34148333057910 
H3    H     0.28202237987904 0.64447897000486 0.82220987035153 
H4    H     0.28202237008618 0.35552107065002 0.32220974035241 
H5    H     0.34058797981691 0.80141694971618 0.15440195039671 
H6    H     0.34058814963625 0.19858344032903 0.65440178985836 
H7    H     0.10637556991605 0.89432994039855 0.51270239927293 
H8    H     0.10637585997395 0.10567051934333 0.01270229984603 
H9    H     0.68660374036611 0.60566850021376 0.06262059025287 
H10   H     0.68660370046340 0.39433096052242 0.56262047911841 
H11   H     0.45239142009015 0.69857580046534 0.42092715913077 
H12   H     0.45239150010847 0.30142372997012 0.92092705952012 
H13   H     0.51095721018033 0.85551645002491 0.75311651079682 
H14   H     0.51095745981590 0.14448360983447 0.25311652070280 
H15   H     0.80162264034493 0.91077887003851 0.73383859950523 
H16   H     0.80162295957610 0.08922157008715 0.23383862035086 
