data_stdin
_audit_creation_method 'critic2'
_audit_creation_date 2023-8-11
_chemical_formula_sum 'C10 H8'
_cell_formula_units_Z 16
_cell_length_a         5.7353704919
_cell_length_b        33.0839302619
_cell_length_c        16.0964203008
_cell_angle_alpha        89.9988
_cell_angle_beta        89.9984
_cell_angle_gamma        89.9980
_cell_volume          3054.273171
_space_group_crystal_system orthorhombic
_space_group_IT_number 43
_space_group_name_H-M_alt 'Fdd2'
_space_group_name_Hall 'F 2 -2d'
loop_
_symmetry_equiv_pos_site_id
_symmetry_equiv_pos_as_xyz
 1 'x,y,z'
 2 '-1/2-x,-1/2-y,z'
 3 '-1/4-x,-1/4+y,-3/4+z'
 4 '-1/4+x,-1/4-y,-3/4+z'
 5 '-1/2+x,-1/2+y,z'
 6 '-x,-y,z'
 7 '-3/4-x,-3/4+y,-3/4+z'
 8 '-3/4+x,-3/4-y,-3/4+z'
 9 '-1/2+x,y,-1/2+z'
 10 '-x,-1/2-y,-1/2+z'
 11 '-3/4-x,-1/4+y,-1/4+z'
 12 '-3/4+x,-1/4-y,-1/4+z'
 13 'x,-1/2+y,-1/2+z'
 14 '-1/2-x,-y,-1/2+z'
 15 '-1/4-x,-3/4+y,-1/4+z'
 16 '-1/4+x,-3/4-y,-1/4+z'
loop_
_atom_site_label
_atom_site_type_symbol
_atom_site_fract_x
_atom_site_fract_y
_atom_site_fract_z
C1    C     0.55819205924987 0.44769128001970 0.48594371026983 
C2    C     0.38570557951665 0.43120475985569 0.43681175001870 
C3    C     0.19142173085821 0.41175071990048 0.47362610007796 
C4    C     0.17395048014444 0.40887391996942 0.55888386969041 
C5    C     0.34860246002229 0.42550811999543 0.61127349014519 
C6    C     0.54443817055519 0.44547050004640 0.57389497025543 
C7    C     0.71716662948268 0.46273560997894 0.62604617975556 
C8    C     0.69812881003905 0.46053585009826 0.71123773015000 
C9    C     0.50493194027207 0.44086819986020 0.74812122015972 
C10   C     0.33425988995440 0.42361063991122 0.69929806010125 
H1    H     0.70740505077446 0.46291012001030 0.45801951020064 
H2    H     0.39994916926921 0.43270690010211 0.36943911013433 
H3    H     0.05507590048442 0.39860040009171 0.43494933978085 
H4    H     0.02401542992899 0.39408338993440 0.58697766020078 
H5    H     0.86512305918120 0.47784380994017 0.59734657980726 
H6    H     0.83093168985621 0.47439009994699 0.75029699025506 
H7    H     0.49006938914030 0.43968440996605 0.81552535028724 
H8    H     0.18598945047531 0.40832524994155 0.72755456013247 
