data_stdin
_audit_creation_method 'critic2'
_audit_creation_date 2023-8-11
_chemical_formula_sum 'C10 H8'
_cell_formula_units_Z 8
_cell_length_a        25.0142119959
_cell_length_b         3.9731275800
_cell_length_c        16.1972730783
_cell_angle_alpha        90.0000
_cell_angle_beta        70.0546
_cell_angle_gamma        90.0000
_cell_volume          1513.203815
_space_group_crystal_system monoclinic
_space_group_IT_number 12
_space_group_name_H-M_alt 'C2/m'
_space_group_name_Hall '-C 2y'
loop_
_symmetry_equiv_pos_site_id
_symmetry_equiv_pos_as_xyz
 1 'x,y,z'
 2 '-1/2-x,-y,-1/2-z'
 3 '-1/2-x,-1/2+y,-1/2-z'
 4 'x,-1/2-y,z'
 5 '-1/2+x,y,-1/2+z'
 6 '-x,-y,-z'
 7 '-x,-1/2+y,-z'
 8 '-1/2+x,-1/2-y,-1/2+z'
 9 'x,-1/2+y,-1/2+z'
 10 '-1/2-x,-1/2-y,-z'
 11 '-1/2-x,y,-z'
 12 'x,-y,-1/2+z'
 13 '-1/2+x,-1/2+y,z'
 14 '-x,-1/2-y,-1/2-z'
 15 '-x,y,-1/2-z'
 16 '-1/2+x,-y,z'
loop_
_atom_site_label
_atom_site_type_symbol
_atom_site_fract_x
_atom_site_fract_y
_atom_site_fract_z
C1    C     0.17892783683982 0.24999695399677 0.89487195377087 
C2    C     0.14355064831318 0.24999870042473 0.98138677190105 
C3    C     0.08380544469427 0.24999962392678 0.00249420683314 
C4    C     0.06041756427687 0.25000014755033 0.93678826147665 
C5    C     0.09558902181664 0.25000312033371 0.84719737811286 
C6    C     0.15617553743060 0.25000015310492 0.82563815373528 
C7    C     0.19115911514007 0.25000756319875 0.73580420098397 
C8    C     0.16754739528786 0.25001968222021 0.67035078668308 
C9    C     0.10778321367537 0.25002540043317 0.69162525602788 
C10   C     0.07268913547923 0.25001719248706 0.77823809629459 
H1    H     0.22496960143746 0.24999617391244 0.87837234157190 
H2    H     0.16131698180278 0.25000471323202 0.03410275777950 
H3    H     0.05624258714520 0.25000519863777 0.07113409765186 
H4    H     0.01442750370645 0.25000145115248 0.95303334983949 
H5    H     0.23715523670320 0.25000361684332 0.71915993221837 
H6    H     0.19497555012667 0.25001439947048 0.60164731887258 
H7    H     0.08994384997118 0.25002879079698 0.63899097661426 
H8    H     0.02658975292776 0.25002091735303 0.79536795330621 
