data_stdin
_audit_creation_method 'critic2'
_audit_creation_date 2023-8-11
_chemical_formula_sum 'C10 H8'
_cell_formula_units_Z 8
_cell_length_a        21.0055700021
_cell_length_b         4.6544252188
_cell_length_c        15.3759494762
_cell_angle_alpha        90.0209
_cell_angle_beta        81.9008
_cell_angle_gamma        89.9741
_cell_volume          1488.294242
_space_group_crystal_system triclinic
_space_group_IT_number 2
_space_group_name_H-M_alt 'P-1'
_space_group_name_Hall '-P 1'
loop_
_symmetry_equiv_pos_site_id
_symmetry_equiv_pos_as_xyz
 1 'x,y,z'
 2 '-x,-y,-z'
 3 '-1/2+x,-1/2+y,z'
 4 '-1/2-x,-1/2-y,-z'
loop_
_atom_site_label
_atom_site_type_symbol
_atom_site_fract_x
_atom_site_fract_y
_atom_site_fract_z
C1    C     0.43547912994502 0.98209193000134 0.87792003989982 
C2    C     0.56457031003181 0.98243873971039 0.62190825005736 
C3    C     0.42539296982267 0.91055867926553 0.96575989982855 
C4    C     0.57473612998210 0.91090169066852 0.53404961016236 
C5    C     0.37568855014350 0.04526796098814 0.02322228980788 
C6    C     0.62444495008206 0.04564015912942 0.47668999977446 
C7    C     0.33669151010074 0.24767589973182 0.99175201977498 
C8    C     0.66337212019646 0.24801273076191 0.50827363000769 
C9    C     0.34557571991460 0.32497193973468 0.90156758973523 
C10   C     0.65441378984971 0.32526584963177 0.59848364006019 
C11   C     0.39655877005134 0.19122021055159 0.84356175974956 
C12   C     0.60341094975489 0.19158051905334 0.65637824025825 
C13   C     0.40583669977792 0.27120368065317 0.75359621010301 
C14   C     0.59404374004536 0.27160845946131 0.74636137010356 
C15   C     0.36642828005448 0.47155922030943 0.72209127008681 
C16   C     0.63339326997095 0.47188003002645 0.77798388967630 
C17   C     0.31580444007007 0.60180363014371 0.77916771982110 
C18   C     0.68404876006655 0.60200470051108 0.72102105021624 
C19   C     0.30580445987851 0.53015354932033 0.86702395012689 
C20   C     0.69412695004322 0.53035318104110 0.63314573002702 
H1    H     0.47251015980631 0.87168122092887 0.83335426022838 
H2    H     0.52753719986981 0.87203825892710 0.66640213016507 
H3    H     0.45524057012977 0.74786199014817 0.99097880002371 
H4    H     0.54495838009664 0.74816263966755 0.50874076971042 
H5    H     0.36791570996344 0.98622933081860 0.09245675988756 
H6    H     0.63227460981165 0.98665972098900 0.40743544989619 
H7    H     0.29827354018307 0.35086706985576 0.03592308969503 
H8    H     0.70179310009165 0.35122099052495 0.46418046998232 
H9    H     0.44459969976784 0.17134643964086 0.70928895016798 
H10   H     0.55526315023306 0.17183329921939 0.79058981000737 
H11   H     0.37440317976295 0.53103348939128 0.65292912023413 
H12   H     0.62534516982943 0.53137768921889 0.84715913029117 
H13   H     0.28519723003428 0.76088679019055 0.75365147979337 
H14   H     0.71461359992878 0.76100337050868 0.74663296983725 
H15   H     0.26737497999149 0.63207331089893 0.91147070969283 
H16   H     0.73257245983982 0.63218772947920 0.58877391982339 
