data_stdin
_audit_creation_method 'critic2'
_audit_creation_date 2023-8-11
_chemical_formula_sum 'C10 H8'
_cell_formula_units_Z 8
_cell_length_a        33.6063631058
_cell_length_b         5.8909321294
_cell_length_c         7.4968337794
_cell_angle_alpha        90.0020
_cell_angle_beta        89.9629
_cell_angle_gamma        90.0122
_cell_volume          1484.168860
_space_group_crystal_system triclinic
_space_group_IT_number 2
_space_group_name_H-M_alt 'P-1'
_space_group_name_Hall '-P 1'
loop_
_symmetry_equiv_pos_site_id
_symmetry_equiv_pos_as_xyz
 1 'x,y,z'
 2 '-x,-y,-z'
loop_
_atom_site_label
_atom_site_type_symbol
_atom_site_fract_x
_atom_site_fract_y
_atom_site_fract_z
C1    C     0.41212326987712 0.45811810051285 0.91282029060077 
C2    C     0.91212207014553 0.04201763973771 0.08705074002478 
C3    C     0.58786417009034 0.45798577947239 0.58714344978298 
C4    C     0.08789046990273 0.04189087993096 0.41291378955019 
C5    C     0.44743463003364 0.35263294984126 0.95678844989877 
C6    C     0.94743442990065 0.14763418066310 0.04296019977465 
C7    C     0.55255809992301 0.35238090928846 0.54313483969986 
C8    C     0.05257279991969 0.14738443052333 0.45696329992038 
C9    C     0.44727467011812 0.14295936943965 0.04908775989452 
C10   C     0.94727769003185 0.35730940055851 0.95066482062763 
C11   C     0.55272961998457 0.14271101003804 0.45083597042808 
C12   C     0.05271791999134 0.35705724984353 0.54925847986374 
C13   C     0.41179940992695 0.03947756923807 0.09363266943728 
C14   C     0.91180358002352 0.46066075052893 0.90624484062402 
C15   C     0.58821015001659 0.03935268996680 0.40633192063426 
C16   C     0.08818672998907 0.46052934963181 0.59371887942735 
C17   C     0.37492342997151 0.14249043049101 0.04905802048874 
C18   C     0.87492618997381 0.35750949999994 0.95094326010850 
C19   C     0.62508080009425 0.14249285988527 0.45094209027871 
C20   C     0.12506953987025 0.35750894959302 0.54905659047026 
C21   C     0.37508824014225 0.35703547025504 0.95788589947109 
C22   C     0.87508857001186 0.14296362008625 0.04211263941245 
C23   C     0.62490456013591 0.35703429975517 0.54211411064646 
C24   C     0.12491865014076 0.14296508043291 0.45788757987181 
C25   C     0.33821023990521 0.45996204061025 0.91321630022240 
C26   C     0.83820915004713 0.03989909066837 0.08690659003225 
C27   C     0.66177722006558 0.46008805954769 0.58681940035616 
C28   C     0.16180350003798 0.04003125953676 0.41312995951627 
C29   C     0.30273779986917 0.35629773008740 0.95755617983990 
C30   C     0.80273782001370 0.14343288034708 0.04269161965107 
C31   C     0.69725493001005 0.35654721078230 0.54252039947263 
C32   C     0.19726954009523 0.14368574983527 0.45738537048680 
C33   C     0.30257574012605 0.14662437924819 0.04985701942975 
C34   C     0.80257896992140 0.35310706001224 0.95039342023208 
C35   C     0.69742854998543 0.14687780001840 0.45021964046978 
C36   C     0.19741677989550 0.35335782018924 0.54968297983443 
C37   C     0.33789023005741 0.04132223009238 0.09402928004335 
C38   C     0.83789451000552 0.45854056942173 0.90609883986407 
C39   C     0.66211935001522 0.04145591964531 0.40600691944338 
C40   C     0.16209590997426 0.45866834986327 0.59393651059952 
H1    H     0.41224607986261 0.61981212946911 0.84246407976200 
H2    H     0.91224290998353 0.88032306077964 0.15740593969758 
H3    H     0.58773357996917 0.61967788949064 0.65749920055193 
H4    H     0.08777748998007 0.88019893965122 0.34255872981880 
H5    H     0.47559796993700 0.43080489996646 0.91931720047683 
H6    H     0.97559595008300 0.06957139990091 0.08034440982399 
H7    H     0.52439002005310 0.43045388960416 0.58056950013741 
H8    H     0.02441608990711 0.06922448027600 0.41954264982198 
H9    H     0.47531828999664 0.06304841059791 0.08588125958818 
H10   H     0.97532310012643 0.43733093973077 0.91378901043548 
H11   H     0.52469071010025 0.06270362060309 0.41400697054767 
H12   H     0.02466782000422 0.43698014064572 0.58609857004572 
H13   H     0.41167330002045 0.87772956019126 0.16388439038925 
H14   H     0.91167932994934 0.62241013921604 0.83599706951663 
H15   H     0.58834412000990 0.87760825935580 0.33608056015230 
H16   H     0.08830311006866 0.62227773083192 0.66396641956320 
H17   H     0.33833164994392 0.62170798961575 0.84295537980123 
H18   H     0.83832866004924 0.87815206080416 0.15716404039708 
H19   H     0.66164798007734 0.62183031996626 0.65708016964557 
H20   H     0.16169183013753 0.87828508076935 0.34287296964378 
H21   H     0.27469631993703 0.43601438026105 0.92049420037817 
H22   H     0.77469457996486 0.06360584938488 0.07983728966594 
H23   H     0.72529162002145 0.43636016057118 0.57961868058903 
H24   H     0.22531753989803 0.06395721968062 0.42027625037061 
H25   H     0.27440967014122 0.06825375018634 0.08705738973984 
H26   H     0.77441477004780 0.43136825925646 0.91327861966315 
H27   H     0.72559929001055 0.06860627966007 0.41305505042192 
H28   H     0.22557622995243 0.43171637061000 0.58683336980099 
H29   H     0.33777227985794 0.87963323003592 0.16438694984065 
H30   H     0.83777851010247 0.62022976972486 0.83574162946127 
H31   H     0.66224510998495 0.87976896926016 0.33564948050588 
H32   H     0.16220404001528 0.62035504059799 0.66429337007938 
