data_stdin
_audit_creation_method 'critic2'
_audit_creation_date 2023-8-11
_chemical_formula_sum 'C10 H8'
_cell_formula_units_Z 4
_cell_length_a         8.0514020209
_cell_length_b         6.9986025300
_cell_length_c        13.0686136004
_cell_angle_alpha        90.0000
_cell_angle_beta        90.0034
_cell_angle_gamma        90.0000
_cell_volume           736.397590
_space_group_crystal_system triclinic
_space_group_IT_number 1
_space_group_name_H-M_alt 'P 1'
_space_group_name_Hall 'P 1'
loop_
_symmetry_equiv_pos_site_id
_symmetry_equiv_pos_as_xyz
 1 'x,y,z'
loop_
_atom_site_label
_atom_site_type_symbol
_atom_site_fract_x
_atom_site_fract_y
_atom_site_fract_z
C1    C     0.95102610622678 0.37066264360620 0.99886142591726 
C2    C     0.04897221798079 0.62933476728603 0.49886495948108 
C3    C     0.54897246319744 0.87066521829536 0.49886512442548 
C4    C     0.45102605104042 0.12933732647892 0.99886136963644 
C5    C     0.97222782596495 0.39497588516740 0.10277737749428 
C6    C     0.02776699551271 0.60502456668482 0.60278159762359 
C7    C     0.52776733509687 0.89497544992207 0.60278177215756 
C8    C     0.47222778570891 0.10502413604300 0.10277730627083 
C9    C     0.85335061859342 0.49811715422064 0.16055895101271 
C10   C     0.14664465626471 0.50188932982636 0.66056105501615 
C11   C     0.64664500413042 0.99811075119060 0.66056118113367 
C12   C     0.35335061476863 0.00188288886367 0.16055891137244 
C13   C     0.71607767580289 0.57634790527544 0.11315757374987 
C14   C     0.28391863956542 0.42365721054291 0.61315693129118 
C15   C     0.78391891752255 0.07634288820776 0.61315701389467 
C16   C     0.21607766363900 0.92365213702469 0.11315755007430 
C17   C     0.69001937218285 0.55283610948061 0.00647417427680 
C18   C     0.30998075416856 0.44716622109564 0.50647275224754 
C19   C     0.80998096504067 0.05283381785227 0.50647281308304 
C20   C     0.19001932525780 0.94716387894175 0.00647414022811 
C21   C     0.80998837001688 0.44716208762838 0.94824638179254 
C22   C     0.19001139198350 0.55283561388270 0.44824733655406 
C23   C     0.69001155620356 0.94716438497238 0.44824743948157 
C24   C     0.30998830515906 0.05283783744125 0.94824633855339 
C25   C     0.78393327948852 0.42366036670196 0.84156197619540 
C26   C     0.21607033693952 0.57633458100184 0.34156214888506 
C27   C     0.71607039184564 0.92366541234711 0.34156225223459 
C28   C     0.28393318856432 0.07633948162807 0.84156193176491 
C29   C     0.64665827247688 0.50188871299101 0.79416180098300 
C30   C     0.35334632239149 0.49810483647818 0.29415922428050 
C31   C     0.85334634216564 0.00189517889101 0.29415927799540 
C32   C     0.14665816824546 0.99811115598778 0.79416177863877 
C33   C     0.52777382415671 0.60501627930878 0.85194537218501 
C34   C     0.47223121296540 0.39498326520495 0.35194064921462 
C35   C     0.97223128200872 0.10501676027757 0.35194067440829 
C36   C     0.02777368928677 0.89498367870044 0.85194538218810 
C37   C     0.54897633133452 0.62932628593844 0.95586125109394 
C38   C     0.45102520802404 0.37067627381586 0.45585722764716 
C39   C     0.95102535901475 0.12932373125334 0.45585725554300 
C40   C     0.04897624120332 0.87067372748260 0.95586125533791 
H1    H     0.04284912342385 0.29272249620679 0.95423583799233 
H2    H     0.95715037794960 0.70727180044155 0.45424052401350 
H3    H     0.45715060487596 0.79272813582226 0.45424072713623 
H4    H     0.54284904057322 0.20727744450730 0.95423576878329 
H5    H     0.08096491211382 0.33477909903805 0.14041585740385 
H6    H     0.91902804544313 0.66522151063381 0.64042148076992 
H7    H     0.41902843163865 0.83477850575009 0.64042169489605 
H8    H     0.58096487865379 0.16522096083642 0.14041578714512 
H9    H     0.87036103006343 0.51520429019494 0.24274840879678 
H10   H     0.12963275926885 0.48480437426777 0.74275105745102 
H11   H     0.62963318324860 0.01519575870319 0.74275118799137 
H12   H     0.37036104948628 0.98479577662559 0.24274836397150 
H13   H     0.62500977571243 0.65745314167165 0.15684543699242 
H14   H     0.37498645720777 0.34255467686376 0.65684271799469 
H15   H     0.87498675453201 0.15744549264495 0.65684275655027 
H16   H     0.12500977026374 0.84254691424227 0.15684543747040 
H17   H     0.87500224770266 0.34255869958972 0.79787309757736 
H18   H     0.12500143748518 0.65743354682586 0.29787536739693 
H19   H     0.62500146681364 0.84256644292134 0.29787549260390 
H20   H     0.37500215875771 0.15744107082791 0.79787303741042 
H21   H     0.62965670167180 0.48482045935761 0.71196996297085 
H22   H     0.37034938238626 0.51517095541924 0.21196680584969 
H23   H     0.87034932852952 0.98482906086390 0.21196686279525 
H24   H     0.12965657667772 0.01517934159007 0.71196994121906 
H25   H     0.41903306164848 0.66520681847678 0.81430834296141 
H26   H     0.58097381210757 0.33479256250190 0.31430221852031 
H27   H     0.08097383081377 0.16520747034780 0.31430220182563 
H28   H     0.91903290756241 0.83479317516906 0.81430838413794 
H29   H     0.45715560444280 0.70726679483857 0.00048845900411 
H30   H     0.54284476524367 0.29273882629195 0.50048325540621 
H31   H     0.04284496060724 0.20726117808494 0.50048325813287 
H32   H     0.95715550844143 0.79273327367288 0.00048848153154 
