data_stdin
_audit_creation_method 'critic2'
_audit_creation_date 2023-8-11
_chemical_formula_sum 'C10 H8'
_cell_formula_units_Z 4
_cell_length_a        12.3719791027
_cell_length_b         3.9346739440
_cell_length_c        16.2682856868
_cell_angle_alpha        90.1333
_cell_angle_beta       110.5561
_cell_angle_gamma        89.9931
_cell_volume           741.509508
_space_group_crystal_system triclinic
_space_group_IT_number 2
_space_group_name_H-M_alt 'P-1'
_space_group_name_Hall '-P 1'
loop_
_symmetry_equiv_pos_site_id
_symmetry_equiv_pos_as_xyz
 1 'x,y,z'
 2 '-x,-y,-z'
 3 '-1/2+x,y,z'
 4 '-1/2-x,-y,-z'
loop_
_atom_site_label
_atom_site_type_symbol
_atom_site_fract_x
_atom_site_fract_y
_atom_site_fract_z
C1    C     0.39399263969397 0.28439769124075 0.03967789967612 
C2    C     0.60599064015510 0.28384764895369 0.46007001986301 
C3    C     0.40687213995506 0.21641205066514 0.12566095993988 
C4    C     0.59332624000644 0.21458276045638 0.37411305024709 
C5    C     0.32021552987571 0.31421663910791 0.15906913012854 
C6    C     0.68015755022964 0.31175542977610 0.34089555977272 
C7    C     0.22207678027259 0.47773602078996 0.10590760981117 
C8    C     0.77823357994100 0.47604810004128 0.39421509990265 
C9    C     0.20601198988844 0.54906049090785 0.01691457027602 
C10   C     0.79406912027244 0.54879148007230 0.48317965022775 
H1    H     0.46068379027575 0.21089640122121 0.01381954031285 
H2    H     0.53916560956879 0.21080725915287 0.48578005990631 
H3    H     0.48304469039623 0.08188837978933 0.16771110028881 
H4    H     0.51716723027077 0.07961878989779 0.33192526028074 
H5    H     0.33140007025066 0.25834252946588 0.22709363971488 
H6    H     0.66916661960679 0.25481861053868 0.27289311991736 
H7    H     0.15528973017900 0.55577195063053 0.13139577971173 
H8    H     0.84514109967705 0.55366216051978 0.36887048016367 
