data_stdin
_audit_creation_method 'critic2'
_audit_creation_date 2023-8-11
_chemical_formula_sum 'C10 H8'
_cell_formula_units_Z 8
_cell_length_a        10.6985493300
_cell_length_b        10.0465616200
_cell_length_c        13.5170664500
_cell_angle_alpha        90.0000
_cell_angle_beta        90.0000
_cell_angle_gamma        90.0000
_cell_volume          1452.863438
_space_group_crystal_system orthorhombic
_space_group_IT_number 56
_space_group_name_H-M_alt 'Pccn'
_space_group_name_Hall '-P 2ab 2ac'
loop_
_symmetry_equiv_pos_site_id
_symmetry_equiv_pos_as_xyz
 1 'x,y,z'
 2 '-x,-y,-z'
 3 '-1/2-x,-1/2-y,z'
 4 '-1/2+x,-1/2+y,-z'
 5 '-x,-1/2+y,-1/2-z'
 6 'x,-1/2-y,-1/2+z'
 7 '-1/2+x,-y,-1/2-z'
 8 '-1/2-x,y,-1/2+z'
loop_
_atom_site_label
_atom_site_type_symbol
_atom_site_fract_x
_atom_site_fract_y
_atom_site_fract_z
C1    C     0.25001315975228 0.55279348961301 0.69793023994531 
C2    C     0.19575110037493 0.50199112035372 0.61345101004354 
C3    C     0.25235885033261 0.52245774972841 0.52017503978059 
C4    C     0.36173850992570 0.59432718994681 0.51255654965311 
C5    C     0.41884556033152 0.64977458953833 0.59788656000144 
C6    C     0.36198007964539 0.62820813020434 0.69275838019276 
C7    C     0.41797577029883 0.68592032977550 0.77784121023638 
C8    C     0.52515645029742 0.76147980012074 0.76978037967126 
C9    C     0.58193544982549 0.78127898020835 0.67646281979452 
C10   C     0.53005990955493 0.72655405047817 0.59244317966686 
H1    H     0.20531385982571 0.53759411040650 0.76944387993126 
H2    H     0.10866937015275 0.44671033955004 0.61888328004501 
H3    H     0.20880759002159 0.48096551048714 0.45422712978697 
H4    H     0.40611232013838 0.60871692008567 0.44084859970689 
H5    H     0.37352206994987 0.67108681001107 0.84963215969033 
H6    H     0.56755214985211 0.80715609996558 0.83474849031989 
H7    H     0.66719048013159 0.83997669960745 0.67211231970211 
H8    H     0.57406761955389 0.74126496023713 0.52053255994508 
