data_stdin
_audit_creation_method 'critic2'
_audit_creation_date 2023-8-11
_chemical_formula_sum 'C10 H8'
_cell_formula_units_Z 4
_cell_length_a         7.5495802500
_cell_length_b        17.3208627800
_cell_length_c         5.8611844217
_cell_angle_alpha        90.0014
_cell_angle_beta        90.0000
_cell_angle_gamma        90.0000
_cell_volume           766.439208
_space_group_crystal_system orthorhombic
_space_group_IT_number 61
_space_group_name_H-M_alt 'Pbca'
_space_group_name_Hall '-P 2ac 2ab'
loop_
_symmetry_equiv_pos_site_id
_symmetry_equiv_pos_as_xyz
 1 'x,y,z'
 2 '-x,-1/2-y,-1/2-z'
 3 '-1/2+x,-1/2-y,-z'
 4 '-1/2-x,y,-1/2+z'
 5 '-x,-y,-1/2+z'
 6 'x,-1/2+y,-z'
 7 '-1/2-x,-1/2+y,-1/2-z'
 8 '-1/2+x,-y,z'
loop_
_atom_site_label
_atom_site_type_symbol
_atom_site_fract_x
_atom_site_fract_y
_atom_site_fract_z
C1    C     0.09329216018334 0.30615731981947 0.99926565082254 
C2    C     0.06249605996307 0.38084286003874 0.07046444029952 
C3    C     0.97776917994878 0.39538566982295 0.28153594989836 
C4    C     0.92575106940548 0.33496457984624 0.41959645956508 
C5    C     0.95751497045150 0.25737622994743 0.35256426023955 
H1    H     0.15781711970013 0.29518813995968 0.83644156967806 
H2    H     0.10478928017223 0.42874156005861 0.96318098032514 
H3    H     0.95379863006291 0.45471207020110 0.33482832061704 
H4    H     0.85989985999553 0.34578355022656 0.58187297052574 
