data_stdin
_audit_creation_method 'critic2'
_audit_creation_date 2023-8-11
_chemical_formula_sum 'C10 H8'
_cell_formula_units_Z 8
_cell_length_a        19.4553542757
_cell_length_b         7.4659761650
_cell_length_c        10.5283115365
_cell_angle_alpha        89.9977
_cell_angle_beta        80.8446
_cell_angle_gamma        90.0013
_cell_volume          1509.788853
_space_group_crystal_system monoclinic
_space_group_IT_number 15
_space_group_name_H-M_alt 'C2/c'
_space_group_name_Hall '-C 2yc'
loop_
_symmetry_equiv_pos_site_id
_symmetry_equiv_pos_as_xyz
 1 'x,y,z'
 2 '-1/2-x,-1/2-y,-1/2-z'
 3 '-1/2-x,-1/2+y,-z'
 4 'x,-y,-1/2+z'
 5 '-1/2+x,-1/2+y,-1/2+z'
 6 '-x,-y,-z'
 7 '-x,y,-1/2-z'
 8 '-1/2+x,-1/2-y,z'
loop_
_atom_site_label
_atom_site_type_symbol
_atom_site_fract_x
_atom_site_fract_y
_atom_site_fract_z
C1    C     0.58214479015063 0.33530059934355 0.11864111994676 
C2    C     0.55954858983494 0.16749199053180 0.08948953962541 
C3    C     0.57662305981492 0.01547755006488 0.15848295954383 
C4    C     0.61524593985204 0.03389201970885 0.25669125030128 
C5    C     0.63970724997475 0.20452172025701 0.28850914956210 
C6    C     0.62342605989463 0.35831599021244 0.21718994986818 
C7    C     0.65041717017424 0.52772156998121 0.24581528044656 
C8    C     0.69187503008149 0.54468850950556 0.33990229046053 
C9    C     0.70732991998224 0.39307151020267 0.41088465025988 
C10   C     0.68138377014642 0.22719540939454 0.38634924958160 
H1    H     0.56952001001887 0.45217069032624 0.06478557044889 
H2    H     0.52825819014229 0.15144023944399 0.01326535007635 
H3    H     0.55853194010257 0.88366216052406 0.13413671016498 
H4    H     0.62775961983838 0.91775647940992 0.31138507961473 
H5    H     0.63857753017344 0.64381560995480 0.19043048966821 
H6    H     0.71286649985733 0.67498946961394 0.36020363996685 
H7    H     0.74018720011968 0.40782205936687 0.48472781008099 
H8    H     0.69324589000539 0.11024664032826 0.44072780982942 
