data_stdin
_audit_creation_method 'critic2'
_audit_creation_date 2023-8-11
_chemical_formula_sum 'C10 H8'
_cell_formula_units_Z 8
_cell_length_a        13.8808607839
_cell_length_b        13.8806560239
_cell_length_c         7.6147169414
_cell_angle_alpha        89.9995
_cell_angle_beta        90.0011
_cell_angle_gamma        90.0091
_cell_volume          1467.169024
_space_group_crystal_system tetragonal
_space_group_IT_number 86
_space_group_name_H-M_alt 'P4_2/n'
_space_group_name_Hall 'P 4n -1n'
loop_
_symmetry_equiv_pos_site_id
_symmetry_equiv_pos_as_xyz
 1 'x,y,z'
 2 '-1/2+y,-x,-1/2+z'
 3 '-1/2-x,-1/2-y,z'
 4 '-y,-1/2+x,-1/2+z'
 5 '-x,-y,-z'
 6 '-1/2-y,x,-1/2-z'
 7 '-1/2+x,-1/2+y,-z'
 8 'y,-1/2-x,-1/2-z'
loop_
_atom_site_label
_atom_site_type_symbol
_atom_site_fract_x
_atom_site_fract_y
_atom_site_fract_z
C1    C     0.13452502975541 0.39875201019855 0.81278877055802 
C2    C     0.17954810017577 0.39027378032331 0.97339303056749 
C3    C     0.12525941967407 0.37445245024512 0.12785100975749 
C4    C     0.02640954994067 0.36643408972003 0.11895845046205 
C5    C     0.97764193007694 0.37325741002680 0.95563372991735 
C6    C     0.03285315030475 0.39032706026719 0.79913367985696 
C7    C     0.98387905969526 0.39789231018792 0.63602978015931 
C8    C     0.88522811016463 0.38722486024005 0.62621854982124 
C9    C     0.83124645024538 0.36924067034034 0.78035514972920 
C10   C     0.87616874983691 0.36377547992065 0.94139887040780 
H1    H     0.17706778984400 0.41174668026728 0.69473093984025 
H2    H     0.25743904968665 0.39672062033348 0.98162308998703 
H3    H     0.16233492985604 0.36984405031477 0.25367647029415 
H4    H     0.98431250996438 0.35456756999265 0.23764349936664 
H5    H     0.02578276976110 0.41333161001841 0.51832768980620 
H6    H     0.84802407017625 0.39368395008677 0.50071561988652 
H7    H     0.75350792020044 0.36079235032397 0.77236844968402 
H8    H     0.83333953020786 0.35324283023891 0.05973887048781 
