data_stdin
_audit_creation_method 'critic2'
_audit_creation_date 2023-8-11
_chemical_formula_sum 'C10 H8'
_cell_formula_units_Z 4
_cell_length_a         7.8658630423
_cell_length_b         7.7697088402
_cell_length_c        12.5323750103
_cell_angle_alpha        89.9998
_cell_angle_beta        67.9798
_cell_angle_gamma        89.9996
_cell_volume           710.049317
_space_group_crystal_system monoclinic
_space_group_IT_number 14
_space_group_name_H-M_alt 'P2_1/c'
_space_group_name_Hall '-P 2ybc'
loop_
_symmetry_equiv_pos_site_id
_symmetry_equiv_pos_as_xyz
 1 'x,y,z'
 2 '-x,-y,-z'
 3 '-x,-1/2+y,-1/2-z'
 4 'x,-1/2-y,-1/2+z'
loop_
_atom_site_label
_atom_site_type_symbol
_atom_site_fract_x
_atom_site_fract_y
_atom_site_fract_z
C1    C     0.27540928035677 0.85317593971068 0.50354158011536 
C2    C     0.34734990009328 0.71180398995675 0.53815728030068 
C3    C     0.38714463961396 0.71920644959650 0.63911024998368 
C4    C     0.35513770061992 0.86783779940511 0.70367890953140 
C5    C     0.27840589935147 0.01480550970718 0.67154873006856 
C6    C     0.23715753032736 0.00696260061238 0.56940994018781 
C7    C     0.15565330940370 0.15218030939062 0.53892491014336 
C8    C     0.11570663951278 0.29845481060107 0.60611849040042 
C9    C     0.15743924026270 0.30670829937975 0.70648259033351 
C10   C     0.23726914966433 0.16794176967425 0.73817146003051 
H1    H     0.24484820025341 0.84845983950820 0.42567046983681 
H2    H     0.37391166056670 0.59339072007182 0.48814921956626 
H3    H     0.44233637056664 0.60620204981528 0.66616892963399 
H4    H     0.38738030002287 0.87328356952100 0.78094585000608 
H5    H     0.12187603943069 0.14466167005439 0.46236157026486 
H6    H     0.05079948976284 0.40855786050326 0.58307843017916 
H7    H     0.12400697995898 0.42301474025120 0.75870933997924 
H8    H     0.26906264954428 0.17373735956419 0.81557857985388 
