data_stdin
_audit_creation_method 'critic2'
_audit_creation_date 2023-8-11
_chemical_formula_sum 'C10 H8'
_cell_formula_units_Z 8
_cell_length_a        25.6425064815
_cell_length_b        11.5261120394
_cell_length_c         5.0046923126
_cell_angle_alpha        89.9963
_cell_angle_beta        89.9989
_cell_angle_gamma        89.9959
_cell_volume          1479.178859
_space_group_crystal_system orthorhombic
_space_group_IT_number 41
_space_group_name_H-M_alt 'Aea2'
_space_group_name_Hall 'A 2 -2ac'
loop_
_symmetry_equiv_pos_site_id
_symmetry_equiv_pos_as_xyz
 1 'x,y,z'
 2 '-x,-1/2-y,-1/2+z'
 3 '-1/2-x,y,-1/2+z'
 4 '-1/2+x,-1/2-y,z'
 5 'x,-1/2+y,-1/2+z'
 6 '-x,-y,z'
 7 '-1/2-x,-1/2+y,z'
 8 '-1/2+x,-y,-1/2+z'
loop_
_atom_site_label
_atom_site_type_symbol
_atom_site_fract_x
_atom_site_fract_y
_atom_site_fract_z
C1    C     0.41437930019384 0.41877093020936 0.00577442934533 
C2    C     0.44961075984138 0.35684575964205 0.85399372934161 
C3    C     0.44916448006242 0.23409256976536 0.85695561080606 
C4    C     0.41341275985736 0.17533781964641 0.01195001915849 
C5    C     0.37586383991395 0.23626829006675 0.16621072062405 
C6    C     0.37630132018187 0.36079261956678 0.16285529961842 
C7    C     0.33863976998561 0.42163083035353 0.31675255061178 
C8    C     0.30286912007803 0.36262366032617 0.47132755009237 
C9    C     0.30252707989064 0.23986022997009 0.47507378003892 
C10   C     0.33791226988857 0.17820018008739 0.32372971915595 
H1    H     0.41529323016865 0.51326792020934 0.00686562074721 
H2    H     0.47839032983769 0.40178758035234 0.73192355936908 
H3    H     0.47766842018881 0.18674657039547 0.73817083977435 
H4    H     0.41346882990766 0.08084927009402 0.01782214069687 
H5    H     0.33847124002722 0.51611582964021 0.31096804024865 
H6    H     0.27435540987764 0.40975584960264 0.59062268000043 
H7    H     0.27376146000115 0.19490906010170 0.59718219983734 
H8    H     0.33724530017774 0.08367924012854 0.32315001034408 
