data_stdin
_audit_creation_method 'critic2'
_audit_creation_date 2023-8-11
_chemical_formula_sum 'C10 H8'
_cell_formula_units_Z 8
_cell_length_a        24.8646106504
_cell_length_b         5.3676504796
_cell_length_c        11.9365081056
_cell_angle_alpha        89.9958
_cell_angle_beta        67.9474
_cell_angle_gamma        89.9986
_cell_volume          1476.548857
_space_group_crystal_system monoclinic
_space_group_IT_number 15
_space_group_name_H-M_alt 'C2/c'
_space_group_name_Hall '-C 2yc'
loop_
_symmetry_equiv_pos_site_id
_symmetry_equiv_pos_as_xyz
 1 'x,y,z'
 2 '-x,-y,-z'
 3 '-x,y,-1/2-z'
 4 'x,-y,-1/2+z'
 5 '-1/2+x,-1/2+y,z'
 6 '-1/2-x,-1/2-y,-z'
 7 '-1/2-x,-1/2+y,-1/2-z'
 8 '-1/2+x,-1/2-y,-1/2+z'
loop_
_atom_site_label
_atom_site_type_symbol
_atom_site_fract_x
_atom_site_fract_y
_atom_site_fract_z
C1    C     0.35845570005704 0.48888469026842 0.49298889004703 
C2    C     0.40539439999181 0.50936495949009 0.52740367013963 
C3    C     0.44641611010995 0.70290865909628 0.48001745984879 
C4    C     0.43983686972980 0.87222414076098 0.39930135043212 
C5    C     0.39215755988608 0.85565604049083 0.36171322006986 
C6    C     0.35045606008892 0.65980722952733 0.40977714966335 
C7    C     0.30252976025264 0.64444487983944 0.37285897956240 
C8    C     0.29615740997970 0.81345753042287 0.29168691013665 
C9    C     0.33753392008566 0.00511583013215 0.24348981032093 
C10   C     0.38431348016628 0.02627608030348 0.27829939971807 
H1    H     0.32696067014026 0.33980741937302 0.52923587971378 
H2    H     0.41045959003674 0.37712287934703 0.59199576035146 
H3    H     0.48317758984719 0.71886417050646 0.50809109990110 
H4    H     0.47108922985006 0.02240860043366 0.36363328979399 
H5    H     0.27071693007105 0.49694440937196 0.41048963975627 
H6    H     0.25915677009247 0.80017107929353 0.26425123954919 
H7    H     0.33283403021940 0.13644630989236 0.17823633957078 
H8    H     0.41555055987667 0.17657020914275 0.24272149024385 
