data_stdin
_audit_creation_method 'critic2'
_audit_creation_date 2023-8-11
_chemical_formula_sum 'C10 H8'
_cell_formula_units_Z 8
_cell_length_a        15.0936719054
_cell_length_b         4.5238565615
_cell_length_c        22.7330352834
_cell_angle_alpha        89.9867
_cell_angle_beta        98.4894
_cell_angle_gamma        90.0202
_cell_volume          1535.240246
_space_group_crystal_system triclinic
_space_group_IT_number 2
_space_group_name_H-M_alt 'P-1'
_space_group_name_Hall '-P 1'
loop_
_symmetry_equiv_pos_site_id
_symmetry_equiv_pos_as_xyz
 1 'x,y,z'
 2 '-x,-y,-z'
 3 '-1/2+x,-1/2+y,z'
 4 '-1/2-x,-1/2-y,-z'
loop_
_atom_site_label
_atom_site_type_symbol
_atom_site_fract_x
_atom_site_fract_y
_atom_site_fract_z
C1    C     0.40972022996530 0.13658529028007 0.06553147984162 
C2    C     0.59035090029018 0.13612946910584 0.43448949998737 
C3    C     0.46909704967122 0.93433319068180 0.09451289995449 
C4    C     0.53097191016643 0.93379672954348 0.40551311004756 
C5    C     0.46158667003625 0.84397510100993 0.15319508986954 
C6    C     0.53847607019664 0.84358478895135 0.34683066998257 
C7    C     0.39497442012357 0.95814368945396 0.18195217005748 
C8    C     0.60508692011523 0.95794823971934 0.31807057019752 
C9    C     0.33238598998031 0.16529302059126 0.15325164997176 
C10   C     0.66767808965160 0.16518605078080 0.34676464985820 
C11   C     0.33987209971270 0.25597747060180 0.09373130989574 
C12   C     0.66019219975443 0.25574967936755 0.40628231979079 
C13   C     0.27712748995453 0.46196218911298 0.06483397992247 
C14   C     0.72293952016040 0.46182408035810 0.43517359009617 
C15   C     0.20976219997979 0.57362632102595 0.09318323993980 
C16   C     0.79031623027953 0.57362760941853 0.40682605018330 
C17   C     0.20211515024876 0.48341405107226 0.15184355984811 
C18   C     0.79796540016842 0.48352532914699 0.34816875999392 
C19   C     0.26203857970805 0.28362588018644 0.18116301980012 
C20   C     0.73802957979865 0.28369420926072 0.31885021017368 
H1    H     0.41481589027440 0.20596892076921 0.02023395009108 
H2    H     0.58526054028956 0.20541749089294 0.47978569983370 
H3    H     0.52198849983959 0.84113289005548 0.07244571020839 
H4    H     0.47808848976066 0.84041625896783 0.42758744990758 
H5    H     0.50791879021092 0.67971212024430 0.17510236019208 
H6    H     0.49214131015064 0.67926358912501 0.32492710989066 
H7    H     0.38901524016461 0.88738811925007 0.22700917002004 
H8    H     0.61104888020144 0.88729253960536 0.27301553003242 
H9    H     0.28316189007287 0.52976727077122 0.01963887018128 
H10   H     0.71690188989429 0.52953808999290 0.48036655997623 
H11   H     0.16243605003974 0.73399191957557 0.07088342998404 
H12   H     0.83765470030106 0.73401537067693 0.42912588018586 
H13   H     0.14838465023837 0.57402121907505 0.17349685005498 
H14   H     0.85170508011223 0.57423662056076 0.32651460010470 
H15   H     0.25611992009053 0.21351060105944 0.22629135999604 
H16   H     0.74394605996485 0.21365913029785 0.27372410999232 
