data_stdin
_audit_creation_method 'critic2'
_audit_creation_date 2023-8-11
_chemical_formula_sum 'C10 H8'
_cell_formula_units_Z 4
_cell_length_a         5.7005453560
_cell_length_b         9.6041564828
_cell_length_c        15.2954916235
_cell_angle_alpha        89.9984
_cell_angle_beta        67.8697
_cell_angle_gamma        90.0001
_cell_volume           775.719072
_space_group_crystal_system triclinic
_space_group_IT_number 1
_space_group_name_H-M_alt 'P 1'
_space_group_name_Hall 'P 1'
loop_
_symmetry_equiv_pos_site_id
_symmetry_equiv_pos_as_xyz
 1 'x,y,z'
loop_
_atom_site_label
_atom_site_type_symbol
_atom_site_fract_x
_atom_site_fract_y
_atom_site_fract_z
C1    C     0.95429541011609 0.67382869974900 0.03855895987019 
C2    C     0.45429530986075 0.17382861957409 0.03855906009727 
C3    C     0.95429606082439 0.32617173978130 0.53855785995451 
C4    C     0.45429616011567 0.82617165960903 0.53855774991257 
C5    C     0.86097615026505 0.63405248990004 0.13207871991553 
C6    C     0.36097606994385 0.13405228998557 0.13207879967895 
C7    C     0.86097683970737 0.36594890992770 0.63207784001470 
C8    C     0.36097690944116 0.86594872042738 0.63207776031975 
C9    C     0.83599357931261 0.49128751035566 0.15696422025927 
C10   C     0.33599359050567 0.99128726983494 0.15696420967209 
C11   C     0.83599355056589 0.50871413968490 0.65696424026361 
C12   C     0.33599355064769 0.00871390957613 0.65696425008956 
C13   C     0.90495198938076 0.39032447034927 0.08773913019544 
C14   C     0.40495205927811 0.89032432978596 0.08773907014474 
C15   C     0.90495149951277 0.60967652998251 0.58773980019551 
C16   C     0.40495142961544 0.10967639045875 0.58773986025043 
C17   C     0.00181267979547 0.42758702001958 0.99073540026914 
C18   C     0.50181271985863 0.92758700023700 0.99073536003899 
C19   C     0.00181223946410 0.57241303965338 0.49073595019595 
C20   C     0.50181220008833 0.07241303028193 0.49073598972083 
C21   C     0.02699118950407 0.57241108999238 0.96561552969703 
C22   C     0.52699114944092 0.07241110040402 0.96561556992733 
C23   C     0.02699163063568 0.42758884997221 0.46561496988565 
C24   C     0.52699167883431 0.92758886975587 0.46561493030843 
C25   C     0.12385089080226 0.60967378022033 0.86861184982095 
C26   C     0.62385083000446 0.10967391974241 0.86861192034248 
C27   C     0.12385140008031 0.39032522011370 0.36861117965344 
C28   C     0.62385146115477 0.89032535963741 0.36861111965069 
C29   C     0.19280861014972 0.50871107027665 0.79938651966547 
C30   C     0.69280860044455 0.00871130038529 0.79938651971940 
C31   C     0.19280863969674 0.49128728971405 0.29938648979056 
C32   C     0.69280865020238 0.99128751982289 0.29938647990200 
C33   C     0.16782654003498 0.36594598036572 0.82427213983647 
C34   C     0.66782662035619 0.86594618028019 0.82427206007306 
C35   C     0.16782586049250 0.63405262047152 0.32427302033436 
C36   C     0.66782579075871 0.13405282038400 0.32427310002915 
C37   C     0.07450839946819 0.32616974969968 0.91779186028634 
C38   C     0.57450850052404 0.82616982987467 0.91779175023155 
C39   C     0.07450776014762 0.67382981977928 0.41779295026490 
C40   C     0.57450766057966 0.17382988953946 0.41779304978403 
H1    H     0.97349717883069 0.78369048960649 0.01941554032138 
H2    H     0.47349702083512 0.28369043962608 0.01941569982730 
H3    H     0.97349805088364 0.21630963047577 0.51941397966134 
H4    H     0.47349820967972 0.71630958049952 0.51941381032922 
H5    H     0.80596986963653 0.71270627992003 0.18740315980698 
H6    H     0.30596974051109 0.21270601024345 0.18740328967656 
H7    H     0.80597080039888 0.28729567948160 0.68740186002485 
H8    H     0.30597092952435 0.78729540043742 0.68740173016353 
H9    H     0.76185681073871 0.46223951037530 0.23123825971688 
H10   H     0.26185682990370 0.96223918031019 0.23123823013959 
H11   H     0.76185663100257 0.53776264002105 0.73123844975339 
H12   H     0.26185661018618 0.03776230995536 0.73123847022904 
H13   H     0.88655442986498 0.28015268035618 0.10606684980329 
H14   H     0.38655455016758 0.78015252001055 0.10606671999236 
H15   H     0.88655358018891 0.71984848952630 0.60606808991508 
H16   H     0.38655345988633 0.21984831980650 0.60606821973098 
H17   H     0.14224790008245 0.71984565975302 0.85028436009553 
H18   H     0.64224776919241 0.21984582009859 0.85028448996907 
H19   H     0.14224875055879 0.28015316997912 0.35028311010609 
H20   H     0.64224887940755 0.78015333969904 0.35028296971504 
H21   H     0.26694466940330 0.53775935033899 0.72511257982126 
H22   H     0.76694465035144 0.03775968040416 0.72511260027655 
H23   H     0.26694485074029 0.46223849991488 0.22511237009504 
H24   H     0.76694486910472 0.96223882998056 0.22511235033553 
H25   H     0.22283104012894 0.28729236005320 0.76894764030718 
H26   H     0.72283116994176 0.78729262972978 0.76894750973190 
H27   H     0.22283011995383 0.71270568951845 0.26894893998564 
H28   H     0.72282999965122 0.21270596023296 0.26894906979491 
H29   H     0.05530699030214 0.21630780991082 0.93693506020255 
H30   H     0.55530715074966 0.71630787030340 0.93693489998033 
H31   H     0.05530613032427 0.78369206028173 0.43693661021553 
H32   H     0.55530596907624 0.28369211025795 0.43693678026380 
