data_stdin
_audit_creation_method 'critic2'
_audit_creation_date 2023-8-11
_chemical_formula_sum 'C10 H8'
_cell_formula_units_Z 8
_cell_length_a         7.4542907549
_cell_length_b        15.4988538602
_cell_length_c        13.2471574844
_cell_angle_alpha        89.9998
_cell_angle_beta        92.4448
_cell_angle_gamma        90.0005
_cell_volume          1529.090241
_space_group_crystal_system monoclinic
_space_group_IT_number 15
_space_group_name_H-M_alt 'C2/c'
_space_group_name_Hall '-C 2yc'
loop_
_symmetry_equiv_pos_site_id
_symmetry_equiv_pos_as_xyz
 1 'x,y,z'
 2 '-1/2-x,-1/2-y,-z'
 3 '-x,y,-1/2-z'
 4 '-1/2+x,-1/2-y,-1/2+z'
 5 '-1/2+x,-1/2+y,z'
 6 '-x,-y,-z'
 7 '-1/2-x,-1/2+y,-1/2-z'
 8 'x,-y,-1/2+z'
loop_
_atom_site_label
_atom_site_type_symbol
_atom_site_fract_x
_atom_site_fract_y
_atom_site_fract_z
C1    C     0.27203287045952 0.74394169992655 0.78369311971620 
C2    C     0.33643109966724 0.73266878998171 0.88186326030679 
C3    C     0.36605870035801 0.64867254968562 0.92088119976346 
C4    C     0.33032762987923 0.57738785029163 0.86118750991035 
C5    C     0.26556375968489 0.58691048017451 0.75956353975624 
C6    C     0.23588078932848 0.67204564990817 0.71982035013404 
C7    C     0.17570950016109 0.68162951005203 0.61741768996431 
C8    C     0.14835853940847 0.61041852979205 0.55629546009035 
C9    C     0.17731136016221 0.52639254018399 0.59536546982716 
C10   C     0.23368531941804 0.51508752981586 0.69496769033823 
H1    H     0.25029554007988 0.80850208003014 0.75291267972489 
H2    H     0.36511776044894 0.78826014987859 0.93006751038723 
H3    H     0.41857733935593 0.64059282974736 0.99828954033058 
H4    H     0.35440901954716 0.51267185996229 0.89094040963263 
H5    H     0.15330103986294 0.74637522982074 0.58732284987267 
H6    H     0.10521936933274 0.61862169028787 0.47725369017678 
H7    H     0.15586329956203 0.47092787989265 0.54595248973125 
H8    H     0.25641590948911 0.45048059968929 0.72535369988276 
