data_stdin
_audit_creation_method 'critic2'
_audit_creation_date 2023-8-11
_chemical_formula_sum 'C10 H8'
_cell_formula_units_Z 8
_cell_length_a        15.5487795306
_cell_length_b         5.9256539916
_cell_length_c        15.5089912489
_cell_angle_alpha        90.0034
_cell_angle_beta        93.3480
_cell_angle_gamma        90.0020
_cell_volume          1426.508168
_space_group_crystal_system monoclinic
_space_group_IT_number 15
_space_group_name_H-M_alt 'C2/c'
_space_group_name_Hall '-C 2yc'
loop_
_symmetry_equiv_pos_site_id
_symmetry_equiv_pos_as_xyz
 1 'x,y,z'
 2 '-1/2-x,-1/2-y,-z'
 3 '-1/2-x,-1/2+y,-1/2-z'
 4 'x,-y,-1/2+z'
 5 '-1/2+x,-1/2+y,z'
 6 '-x,-y,-z'
 7 '-x,y,-1/2-z'
 8 '-1/2+x,-1/2-y,-1/2+z'
loop_
_atom_site_label
_atom_site_type_symbol
_atom_site_fract_x
_atom_site_fract_y
_atom_site_fract_z
C1    C     0.16993715649367 0.41574523809993 0.10827323737842 
C2    C     0.11374820104298 0.26871860701190 0.14487502586515 
C3    C     0.14357816443205 0.06030474008277 0.17970416369666 
C4    C     0.22926486396082 0.00168228966104 0.17695777241469 
C5    C     0.28888068151193 0.15033224779532 0.14065540217094 
C6    C     0.25866968349667 0.36208073901340 0.10569860304658 
C7    C     0.31896052087923 0.51280245309369 0.07169673437371 
C8    C     0.40511396151611 0.45824771296290 0.07230287755329 
C9    C     0.43496896830265 0.24917244428716 0.10661125989351 
C10   C     0.37803829670996 0.09850417462066 0.13998811947162 
H1    H     0.14729100898265 0.57649669060130 0.08146415497794 
H2    H     0.04591858919311 0.31256180607114 0.14724599174124 
H3    H     0.09903247745884 0.94676128659920 0.20971867235428 
H4    H     0.25246180750236 0.84171691922301 0.20380251873543 
H5    H     0.29628744921114 0.67455816038278 0.04608286221832 
H6    H     0.45065858480189 0.57645391241642 0.04651416063788 
H7    H     0.50330214915595 0.20867879639021 0.10685264933745 
H8    H     0.40024936532342 0.93792823881430 0.16734677731684 
