data_stdin
_audit_creation_method 'critic2'
_audit_creation_date 2023-8-11
_chemical_formula_sum 'C10 H8'
_cell_formula_units_Z 4
_cell_length_a        15.6407435914
_cell_length_b        12.2923969342
_cell_length_c         3.8611354007
_cell_angle_alpha        90.0011
_cell_angle_beta        90.0004
_cell_angle_gamma        90.0008
_cell_volume           742.350497
_space_group_crystal_system monoclinic
_space_group_IT_number 7
_space_group_name_H-M_alt 'Pc'
_space_group_name_Hall 'P -2yc'
loop_
_symmetry_equiv_pos_site_id
_symmetry_equiv_pos_as_xyz
 1 'x,y,z'
 2 '-1/2+x,-1/2-y,z'
loop_
_atom_site_label
_atom_site_type_symbol
_atom_site_fract_x
_atom_site_fract_y
_atom_site_fract_z
C1    C     0.11749594997499 0.80872840018269 0.00152580909962 
C2    C     0.88244615022533 0.19113021981404 0.50140645123099 
C3    C     0.04622251015706 0.75066318962327 0.10086566009393 
C4    C     0.95374557997577 0.24913336033829 0.60080533971199 
C5    C     0.04782411980765 0.63558853001232 0.10129982929736 
C6    C     0.95220580978688 0.36421208968722 0.60154600004311 
C7    C     0.12079552999437 0.58071713004651 0.00380258916717 
C8    C     0.87926103014538 0.41914837983048 0.50411281962490 
C9    C     0.19542034992085 0.63801717995168 0.90245317067992 
C10   C     0.80461921013330 0.36191489037524 0.40259056946454 
C11   C     0.19371313977872 0.75468256026979 0.90123175984786 
C12   C     0.80625268007787 0.24524060987334 0.40117309924357 
C13   C     0.26835227979344 0.81197162011253 0.79999458071402 
C14   C     0.73157512019395 0.18804122978414 0.29990758099390 
C15   C     0.34123975014201 0.75710307966781 0.70176366053820 
C16   C     0.65871568970129 0.24299752024595 0.20177641888402 
C17   C     0.34289574015699 0.64205087037025 0.70283942993900 
C18   C     0.65714279969976 0.35804555972044 0.20294023111340 
C19   C     0.27163098017992 0.58395319012968 0.80206464127450 
C20   C     0.72844776010626 0.41606085012820 0.30223539118186 
H1    H     0.11615906992463 0.89738297979411 0.99734337101200 
H2    H     0.88379338022884 0.10247622990960 0.49667836030378 
H3    H     0.98806699007847 0.79305235996201 0.17664488036695 
H4    H     0.01189942977217 0.20668054967564 0.67625874124727 
H5    H     0.99109060986973 0.59016158016311 0.17755616045971 
H6    H     0.00896008979025 0.40953945969664 0.67813801026712 
H7    H     0.12214141975372 0.49210661995977 0.00321472082039 
H8    H     0.87787942968582 0.50775799989718 0.50420721048145 
H9    H     0.26710419992370 0.90055972964812 0.80260052107021 
H10   H     0.73277454998072 0.09945188993027 0.30246109072044 
H11   H     0.39831950004874 0.80181454007881 0.62582194963366 
H12   H     0.60158753003791 0.19835764998595 0.12599551875147 
H13   H     0.40109014994147 0.59971818006363 0.62575714058265 
H14   H     0.59900078984172 0.40047108975054 0.12572674912821 
H15   H     0.27281550990835 0.49536232006210 0.80538059993666 
H16   H     0.72728818006464 0.50465156988404 0.30553602057780 
