data_stdin
_audit_creation_method 'critic2'
_audit_creation_date 2023-8-11
_chemical_formula_sum 'C10 H8'
_cell_formula_units_Z 4
_cell_length_a         5.8508542937
_cell_length_b        28.1991405803
_cell_length_c         4.6330000277
_cell_angle_alpha        89.9914
_cell_angle_beta        95.5904
_cell_angle_gamma        90.0906
_cell_volume           760.757657
_space_group_crystal_system triclinic
_space_group_IT_number 1
_space_group_name_H-M_alt 'P1'
_space_group_name_Hall 'P 1'
loop_
_symmetry_equiv_pos_site_id
_symmetry_equiv_pos_as_xyz
 1 'x,y,z'
 2 '-1/2+x,-1/2+y,z'
loop_
_atom_site_label
_atom_site_type_symbol
_atom_site_fract_x
_atom_site_fract_y
_atom_site_fract_z
C1    C     0.00399593039257 0.64451008986005 0.00248034026861 
C2    C     0.00435717921246 0.35555151003368 0.50191041079312 
C3    C     0.93683869044538 0.68791601998314 0.88679616899112 
C4    C     0.93660741034620 0.31214198004011 0.38617330990057 
C5    C     0.72946914021706 0.70896997008900 0.95583315069402 
C6    C     0.72894306085387 0.29107361015968 0.45516767016769 
C7    C     0.59411607999450 0.68640287986657 0.14128153985856 
C8    C     0.59388474039392 0.31363160012170 0.64060255897892 
C9    C     0.65865839937106 0.64172446014943 0.26436884936858 
C10   C     0.65908597990619 0.35830377993882 0.76377568058329 
C11   C     0.86782914015567 0.62025660996653 0.19266673999985 
C12   C     0.86858292923931 0.37978312008339 0.69212886009509 
C13   C     0.93108174023393 0.57533031016840 0.31320913952092 
C14   C     0.93253757977073 0.42469682013970 0.81285736906181 
C15   C     0.79435183945051 0.55262682988224 0.49658632065198 
C16   C     0.79618273075223 0.44737427998667 0.99636655890947 
C17   C     0.58851694923907 0.57395225015897 0.56862110102823 
C18   C     0.58998185997814 0.42604700988592 0.06826261899091 
C19   C     0.52249705008703 0.61756607016263 0.45511661101340 
C20   C     0.52327574053251 0.38244824014194 0.95456668909724 
H1    H     0.16232494915166 0.62800330984070 0.94772203941630 
H2    H     0.16290065938866 0.37206942016245 0.44702783090366 
H3    H     0.04203095943504 0.70588061988172 0.73902059043960 
H4    H     0.04153362938193 0.29418534993155 0.23837726024954 
H5    H     0.67483092000252 0.74275443990535 0.85803876944094 
H6    H     0.67381757057013 0.25729349994267 0.35729177050882 
H7    H     0.43393681086823 0.70231625995457 0.19414713089100 
H8    H     0.43341806093726 0.29771897016641 0.69331269101022 
H9    H     0.09055590914489 0.55919905996038 0.25850444992292 
H10   H     0.09225353990305 0.44083551009506 0.75819670002754 
H11   H     0.84364373943613 0.51814301985762 0.58800598936233 
H12   H     0.84602339034172 0.48184387983332 0.08796987029245 
H13   H     0.48429368030091 0.55591859008348 0.71757376896778 
H14   H     0.48601944960255 0.44406942991411 0.21724148067480 
H15   H     0.36492149059651 0.63425254983114 0.51098141069079 
H16   H     0.36542536047786 0.36575997985292 0.01035248900344 
