data_stdin
_audit_creation_method 'critic2'
_audit_creation_date 2023-8-11
_chemical_formula_sum 'C10 H8'
_cell_formula_units_Z 8
_cell_length_a         7.1342834601
_cell_length_b         7.1342943400
_cell_length_c        28.7437367300
_cell_angle_alpha        89.9999
_cell_angle_beta        90.0003
_cell_angle_gamma        90.0000
_cell_volume          1463.000957
_space_group_crystal_system tetragonal
_space_group_IT_number 92
_space_group_name_H-M_alt 'P4_12_12'
_space_group_name_Hall 'P 4abw 2nw'
loop_
_symmetry_equiv_pos_site_id
_symmetry_equiv_pos_as_xyz
 1 'x,y,z'
 2 '-1/2-y,-1/2+x,-3/4+z'
 3 '-x,-y,-1/2+z'
 4 '-1/2+y,-1/2-x,-1/4+z'
 5 '-1/2+x,-1/2-y,-1/4-z'
 6 '-y,-x,-1/2-z'
 7 '-1/2-x,-1/2+y,-3/4-z'
 8 'y,x,-z'
loop_
_atom_site_label
_atom_site_type_symbol
_atom_site_fract_x
_atom_site_fract_y
_atom_site_fract_z
C1    C     0.58819692983053 0.18536897023758 0.64810100010946 
C2    C     0.70775810930599 0.18428716997508 0.68572802000905 
C3    C     0.90388303035510 0.18650281959740 0.67884980996206 
C4    C     0.97692482972547 0.18999249942733 0.63445733995495 
C5    C     0.85764363018687 0.19104208024677 0.59500333984295 
C6    C     0.65847021035477 0.18863167064378 0.60200188991145 
C7    C     0.53914298937074 0.18918828051112 0.56254320001434 
C8    C     0.61152525952153 0.19198848939661 0.51809868987939 
C9    C     0.80799042935355 0.19442117956653 0.51118812997806 
C10   C     0.92760346967646 0.19410845042320 0.54882443997813 
H1    H     0.43686310955475 0.18321579067650 0.65334170010276 
H2    H     0.65114233043299 0.18139026012890 0.72085135002009 
H3    H     0.99647205944529 0.18545319962328 0.70893099003553 
H4    H     0.12816728937649 0.19181450067614 0.62900856006219 
H5    H     0.38801141069482 0.18699363932567 0.56808951992684 
H6    H     0.51795111038661 0.19121838986053 0.48815201001329 
H7    H     0.86446320038794 0.19533395932988 0.47599928009095 
H8    H     0.07893094059165 0.19577509017208 0.54352675990960 
