data_stdin
_audit_creation_method 'critic2'
_audit_creation_date 2023-8-11
_chemical_formula_sum 'C10 H8'
_cell_formula_units_Z 4
_cell_length_a         8.0407200095
_cell_length_b         5.9619264848
_cell_length_c        15.4196909120
_cell_angle_alpha        90.0078
_cell_angle_beta        97.8917
_cell_angle_gamma        89.9920
_cell_volume           732.191396
_space_group_crystal_system monoclinic
_space_group_IT_number 14
_space_group_name_H-M_alt 'P2_1/c'
_space_group_name_Hall '-P 2ybc'
loop_
_symmetry_equiv_pos_site_id
_symmetry_equiv_pos_as_xyz
 1 'x,y,z'
 2 '-x,-y,-z'
 3 '-x,-1/2+y,-1/2-z'
 4 'x,-1/2-y,-1/2+z'
loop_
_atom_site_label
_atom_site_type_symbol
_atom_site_fract_x
_atom_site_fract_y
_atom_site_fract_z
C1    C     0.08830465053719 0.72424143972466 0.84622311036135 
C2    C     0.24634066020759 0.66065406060458 0.88459023019595 
C3    C     0.27188701027805 0.44953040004684 0.92624207006412 
C4    C     0.13880153057778 0.30524384002516 0.92886586015373 
C5    C     0.97428057019539 0.36605280075448 0.89074133026078 
C6    C     0.94835034049961 0.58029899042859 0.84855761027615 
C7    C     0.78369454044264 0.64081799950432 0.81003587005093 
C8    C     0.65033734027840 0.49724100939580 0.81404613035594 
C9    C     0.67612192969317 0.28620323963662 0.85579645965302 
C10   C     0.83467787991121 0.22177601010361 0.89281717973016 
H1    H     0.06922676981206 0.88551998964070 0.81329434018907 
H2    H     0.35241941026817 0.77328592966784 0.88247277980293 
H3    H     0.39728594966356 0.40114006948585 0.95613964001377 
H4    H     0.15827710001873 0.14174361954133 0.96005645989524 
H5    H     0.76516516027440 0.80237203962025 0.77698602982184 
H6    H     0.52430516948086 0.54563559043942 0.78505586013122 
H7    H     0.56968506973844 0.17456196001280 0.85848577005947 
H8    H     0.85503368043933 0.05839440077978 0.92401035984769 
