data_stdin
_audit_creation_method 'critic2'
_audit_creation_date 2023-8-11
_chemical_formula_sum 'C10 H8'
_cell_formula_units_Z 4
_cell_length_a        12.8598727528
_cell_length_b         5.4452402912
_cell_length_c        11.1123138984
_cell_angle_alpha        90.0013
_cell_angle_beta        69.2152
_cell_angle_gamma        90.0008
_cell_volume           727.499525
_space_group_crystal_system monoclinic
_space_group_IT_number 14
_space_group_name_H-M_alt 'P2_1/c'
_space_group_name_Hall '-P 2ybc'
loop_
_symmetry_equiv_pos_site_id
_symmetry_equiv_pos_as_xyz
 1 'x,y,z'
 2 '-x,-y,-z'
 3 '-x,-1/2+y,-1/2-z'
 4 'x,-1/2-y,-1/2+z'
loop_
_atom_site_label
_atom_site_type_symbol
_atom_site_fract_x
_atom_site_fract_y
_atom_site_fract_z
C1    C     0.71952346994593 0.73043189036614 0.24225283042347 
C2    C     0.81635330047530 0.70266323974631 0.26774913972404 
C3    C     0.90556425023761 0.86901704081498 0.21497352994826 
C4    C     0.89646746971937 0.06007747032546 0.13775167974186 
C5    C     0.79811046998705 0.09339777916145 0.10950249014072 
C6    C     0.70718513007027 0.92570414018913 0.16365982029743 
C7    C     0.60828788022718 0.96121445001999 0.13645208038850 
C8    C     0.59998813011356 0.15302140959116 0.05903282022040 
C9    C     0.69018162984004 0.31578086954156 0.00407885002482 
C10   C     0.78708205995231 0.28646735031452 0.02906673006979 
H1    H     0.65165829990133 0.60003824977415 0.28136223014362 
H2    H     0.82370713969905 0.55183150052834 0.32859387996836 
H3    H     0.98208073021822 0.84463068994319 0.23462225005619 
H4    H     0.96550551036313 0.18642302059326 0.09529098991336 
H5    H     0.53905257029078 0.83477700990694 0.17848646027484 
H6    H     0.52347280000690 0.18086329969780 0.03978599999903 
H7    H     0.68302735003841 0.46503081004735 0.94237486001581 
H8    H     0.85627335013806 0.41301015043143 0.98783613971166 
