data_stdin
_audit_creation_method 'critic2'
_audit_creation_date 2023-8-11
_chemical_formula_sum 'C10 H8'
_cell_formula_units_Z 2
_cell_length_a         6.0669717084
_cell_length_b        10.5992934709
_cell_length_c         6.0935863498
_cell_angle_alpha        89.9974
_cell_angle_beta        72.0186
_cell_angle_gamma        90.0025
_cell_volume           372.712482
_space_group_crystal_system triclinic
_space_group_IT_number 1
_space_group_name_H-M_alt 'P 1'
_space_group_name_Hall 'P 1'
loop_
_symmetry_equiv_pos_site_id
_symmetry_equiv_pos_as_xyz
 1 'x,y,z'
loop_
_atom_site_label
_atom_site_type_symbol
_atom_site_fract_x
_atom_site_fract_y
_atom_site_fract_z
C1    C     0.99714977057526 0.16119831003314 0.99094059038177 
C2    C     0.49721730967439 0.83882168991058 0.49087318026852 
C3    C     0.95729604060717 0.07717415011021 0.17195542952281 
C4    C     0.45742160980241 0.92286406010709 0.67183443069018 
C5    C     0.10122610978671 0.07716663015885 0.31584758073568 
C6    C     0.60134516962892 0.92287053989041 0.81573201954707 
C7    C     0.28287021962870 0.16126696966554 0.27682813045064 
C8    C     0.78292696969182 0.83875058968976 0.77677530977061 
C9    C     0.32702548994483 0.25004743005048 0.09364976914923 
C10   C     0.82702251916251 0.74995198957594 0.59365392005317 
C11   C     0.18111991955920 0.24995506975807 0.94746799927864 
C12   C     0.68112269014643 0.75004545988414 0.44746420978595 
C13   C     0.22532886002366 0.33869959989218 0.76423366000823 
C14   C     0.72527183978632 0.66128275977846 0.26428679066831 
C15   C     0.40697300958781 0.42280009046239 0.72520891063933 
C16   C     0.90685371971079 0.57716268987137 0.22532468915745 
C17   C     0.55084255016905 0.42282952040824 0.86916102930103 
C18   C     0.05071674926206 0.57713224009849 0.36928228047860 
C19   C     0.51097711023566 0.33881460017119 0.05019020060390 
C20   C     0.01090938013482 0.66116532987845 0.55025790981739 
H1    H     0.88759511022430 0.16107644969805 0.87894113083201 
H2    H     0.38766567960479 0.83894519041444 0.37886991017605 
H3    H     0.81468317004652 0.01014997958289 0.20673721992156 
H4    H     0.31485134001480 0.98989924954689 0.70657607051566 
H5    H     0.06624168005269 0.00990161025297 0.45749223007114 
H6    H     0.56639764938510 0.99014527025843 0.95734033046930 
H7    H     0.39492507018725 0.16112636003370 0.38634853952842 
H8    H     0.89497604965752 0.83889089003075 0.88630219926602 
H9    H     0.11334227957786 0.33879488960517 0.65464467011113 
H10   H     0.61329103032289 0.66118782009076 0.15469133940504 
H11   H     0.44194726072877 0.49007103021331 0.58357092013014 
H12   H     0.94179136987661 0.50988222009235 0.08372280015461 
H13   H     0.69332488944678 0.48993672008699 0.83451317990605 
H14   H     0.19315692007590 0.51001438954160 0.33467404060359 
H15   H     0.62051874909410 0.33895394980302 0.16220238062694 
H16   H     0.12044811989310 0.66102428992702 0.66227376982930 
