data_stdin
_audit_creation_method 'critic2'
_audit_creation_date 2023-8-11
_chemical_formula_sum 'C10 H8'
_cell_formula_units_Z 4
_cell_length_a        29.1174039677
_cell_length_b         4.0193846415
_cell_length_c         6.1250089852
_cell_angle_alpha        92.5042
_cell_angle_beta        88.7027
_cell_angle_gamma        87.2540
_cell_volume           715.107949
_space_group_crystal_system triclinic
_space_group_IT_number 1
_space_group_name_H-M_alt 'P1'
_space_group_name_Hall 'P 1'
loop_
_symmetry_equiv_pos_site_id
_symmetry_equiv_pos_as_xyz
 1 'x,y,z'
loop_
_atom_site_label
_atom_site_type_symbol
_atom_site_fract_x
_atom_site_fract_y
_atom_site_fract_z
C1    C     0.89962189405420 0.71487531785204 0.05423044671433 
C2    C     0.10512720160102 0.31264355232905 0.51844069244137 
C3    C     0.57946856883139 0.21798582778417 0.55670764012665 
C4    C     0.39703012375638 0.80451163965136 0.07659352995948 
C5    C     0.94349638014997 0.76572140072527 0.97746117624829 
C6    C     0.05997590784551 0.25991434114691 0.46987710525629 
C7    C     0.54401381192342 0.25571179445960 0.41310110280767 
C8    C     0.44237472551498 0.72134821282767 0.02088766049791 
C9    C     0.95719415854637 0.65976903631431 0.76147915478986 
C10   C     0.04205135355061 0.35930528056854 0.26876017514936 
C11   C     0.54814195770941 0.10859664648031 0.19913635701100 
C12   C     0.46083618824940 0.80528745903618 0.81594466351408 
C13   C     0.92685317996635 0.50339222219600 0.62645305405592 
C14   C     0.06955953302648 0.50910254156661 0.11956150883484 
C15   C     0.58756583296522 0.92492436445039 0.13248726188379 
C16   C     0.43358345956625 0.97010591633846 0.67000709031847 
C17   C     0.88143198979161 0.44851982633826 0.70041111781812 
C18   C     0.11612121050844 0.56737430256173 0.16498570340665 
C19   C     0.62480764343026 0.88258668502761 0.27566049851467 
C20   C     0.38686410586260 0.06142835363942 0.72330438993193 
C21   C     0.86745661348909 0.55675129186976 0.91914034370850 
C22   C     0.13429897114550 0.46793654913437 0.36917405959778 
C23   C     0.62063353468928 0.03229963842161 0.49269950389203 
C24   C     0.36821540635437 0.97806648890655 0.93152127196874 
C25   C     0.82204513669831 0.50084079744506 0.99317098756696 
C26   C     0.18078976504692 0.52882785976645 0.41524172877982 
C27   C     0.65776834912575 0.98841203752195 0.63634498747039 
C28   C     0.32173625198411 0.07479447892585 0.98636687872244 
C29   C     0.79185119828613 0.34220796221324 0.85831889072473 
C30   C     0.20813026363698 0.68089628005006 0.26635615268582 
C31   C     0.69708662369772 0.80317979662111 0.57010720983843 
C32   C     0.29469331667951 0.24472561845467 0.84195907385106 
C33   C     0.80555690221366 0.23723193347283 0.64203542888679 
C34   C     0.19031450310868 0.77668411405094 0.06419171161155 
C35   C     0.70128631445687 0.65690802212316 0.35579592738022 
C36   C     0.31295271483773 0.32373148932488 0.63568395315382 
C37   C     0.84932816656956 0.29023906773162 0.56517648053228 
C38   C     0.14526968408975 0.72169218062427 0.01523044914511 
C39   C     0.66593459865692 0.69616774730126 0.21177766566013 
C40   C     0.35807244960089 0.23521272637663 0.57827536337745 
H1    H     0.88907385890618 0.79519980139378 0.22065513464836 
H2    H     0.11908614730351 0.23597558863370 0.67282383475685 
H3    H     0.57650478404527 0.33192128493228 0.72149873768046 
H4    H     0.38267944704374 0.73952985900702 0.23386874085984 
H5    H     0.96776350750025 0.88879852923043 0.08259095951946 
H6    H     0.03803039273927 0.13882167006371 0.58542090501654 
H7    H     0.51284340683245 0.40192554242704 0.46360264922934 
H8    H     0.46410392755903 0.58948831115829 0.13440471373811 
H9    H     0.99184027055487 0.70147715475937 0.70143630687954 
H10   H     0.00634402087736 0.31768271211665 0.23139725244948 
H11   H     0.51990197412465 0.13924862677837 0.08712406671487 
H12   H     0.49679277793495 0.74034400567322 0.77381703849097 
H13   H     0.93730427528436 0.42000723194652 0.46027472916706 
H14   H     0.05588189275574 0.58560120281346 0.96440110567775 
H15   H     0.59058340332664 0.80859660354529 0.96846440013147 
H16   H     0.44767373691876 0.03432031552214 0.51184934878729 
H17   H     0.81153313628828 0.58525420839829 0.15915001874220 
H18   H     0.19445618065792 0.45273846330601 0.57056204010462 
H19   H     0.65464186726495 0.10358081927223 0.80066612185051 
H20   H     0.30790156051081 0.01452301501853 0.14589217792621 
H21   H     0.75729435510315 0.29572352483585 0.91785332566922 
H22   H     0.24363194542435 0.72976047556476 0.30374946349769 
H23   H     0.72512139104634 0.76699179976093 0.68269899738436 
H24   H     0.25935419180812 0.32324255516482 0.88783010588580 
H25   H     0.78144546712096 0.11200116006166 0.53714204831341 
H26   H     0.21224371020957 0.89745154408342 0.94847804838236 
H27   H     0.73234236299018 0.50835331682896 0.30673746397521 
H28   H     0.29144235079038 0.46055881784242 0.52372124691446 
H29   H     0.85990904828881 0.21055178969673 0.39869242573112 
H30   H     0.13133639454889 0.79660535638256 0.86040278957785 
H31   H     0.66882409777763 0.58150582740508 0.04718848664956 
H32   H     0.37240225648244 0.29911186660264 0.42071340197982 
