data_stdin
_audit_creation_method 'critic2'
_audit_creation_date 2023-8-11
_chemical_formula_sum 'C10 H8'
_cell_formula_units_Z 4
_cell_length_a         4.6836096953
_cell_length_b        12.4158782116
_cell_length_c        12.7156118793
_cell_angle_alpha        89.9999
_cell_angle_beta        78.1501
_cell_angle_gamma        89.9999
_cell_volume           723.669271
_space_group_crystal_system monoclinic
_space_group_IT_number 14
_space_group_name_H-M_alt 'P2_1/c'
_space_group_name_Hall '-P 2ybc'
loop_
_symmetry_equiv_pos_site_id
_symmetry_equiv_pos_as_xyz
 1 'x,y,z'
 2 '-x,-y,-z'
 3 '-x,-1/2+y,-1/2-z'
 4 'x,-1/2-y,-1/2+z'
loop_
_atom_site_label
_atom_site_type_symbol
_atom_site_fract_x
_atom_site_fract_y
_atom_site_fract_z
C1    C     0.53797665955121 0.74106295038133 0.72962298030821 
C2    C     0.68502325944185 0.76784252004678 0.62765517007352 
C3    C     0.62499448886394 0.71276740022866 0.53723998012024 
C4    C     0.41964893964142 0.63165276978433 0.55030116014603 
C5    C     0.26558166124875 0.60168493993365 0.65425895968162 
C6    C     0.32517263921729 0.65799902992157 0.74596806013703 
C7    C     0.16885755048323 0.62881432029557 0.84986868037535 
C8    C     0.96028051960131 0.54872348983787 0.86257313002986 
C9    C     0.90288740981490 0.49266832029362 0.77221268967564 
C10   C     0.05383064018244 0.51828445972805 0.67044463033938 
H1    H     0.58570821101855 0.78339645997345 0.79904647971067 
H2    H     0.84845725980002 0.83139538981302 0.61695899998392 
H3    H     0.74337663911572 0.73481505997099 0.45725120036067 
H4    H     0.37432502914202 0.58885393978352 0.48070516028126 
H5    H     0.21658806061564 0.67128865021488 0.91935261989519 
H6    H     0.83710737084076 0.52842799991840 0.94246082974177 
H7    H     0.73791424093499 0.42961687971507 0.78362625976052 
H8    H     0.01040187941351 0.47543090996027 0.60060187038510 
