data_stdin
_audit_creation_method 'critic2'
_audit_creation_date 2023-8-11
_chemical_formula_sum 'C10 H8'
_cell_formula_units_Z 8
_cell_length_a        33.5629213300
_cell_length_b         7.5545104211
_cell_length_c         5.8887366807
_cell_angle_alpha        89.9997
_cell_angle_beta        89.9990
_cell_angle_gamma        90.0009
_cell_volume          1493.097659
_space_group_crystal_system orthorhombic
_space_group_IT_number 60
_space_group_name_H-M_alt 'Pbcn'
_space_group_name_Hall '-P 2n 2ab'
loop_
_symmetry_equiv_pos_site_id
_symmetry_equiv_pos_as_xyz
 1 'x,y,z'
 2 '-x,-y,-z'
 3 '-1/2-x,-1/2-y,-1/2+z'
 4 '-1/2+x,-1/2+y,-1/2-z'
 5 '-1/2+x,-1/2-y,-z'
 6 '-1/2-x,-1/2+y,z'
 7 '-x,y,-1/2-z'
 8 'x,-y,-1/2+z'
loop_
_atom_site_label
_atom_site_type_symbol
_atom_site_fract_x
_atom_site_fract_y
_atom_site_fract_z
C1    C     0.59519605788638 0.15810972164828 0.75499420303527 
C2    C     0.55612959812093 0.18895893485514 0.69434628341116 
C3    C     0.54692391979880 0.27286660749345 0.48585295647864 
C4    C     0.57700238411630 0.32357355658577 0.33987636968361 
C5    C     0.61754014804198 0.29221584951808 0.39642072839063 
C6    C     0.62685959283782 0.20838556912333 0.60884409239727 
C7    C     0.66740042275038 0.17788097860675 0.66599475967470 
C8    C     0.69746558586773 0.23006656006609 0.52084538871698 
C9    C     0.68828042881383 0.31353401147344 0.31213554900524 
C10   C     0.64920409348763 0.34291991352548 0.25045810716840 
H1    H     0.60209081686510 0.09434907407695 0.91593092409508 
H2    H     0.53236769039619 0.14785686138575 0.80858170832329 
H3    H     0.51590747053956 0.29786964870650 0.44126755480043 
H4    H     0.57019722133615 0.38885008235398 0.17951666893283 
H5    H     0.67424950961518 0.11282247332311 0.82643258679934 
H6    H     0.72848830914394 0.20707924706203 0.56644238767520 
H7    H     0.71210611809420 0.35585754561542 0.19900352456682 
H8    H     0.64229572731404 0.40647123346093 0.08941794163490 
