data_stdin
_audit_creation_method 'critic2'
_audit_creation_date 2023-8-11
_chemical_formula_sum 'C10 H8'
_cell_formula_units_Z 4
_cell_length_a         5.9123574466
_cell_length_b         4.4793297049
_cell_length_c        31.1172667171
_cell_angle_alpha        89.7048
_cell_angle_beta        61.6187
_cell_angle_gamma        95.2510
_cell_volume           720.881600
_space_group_crystal_system triclinic
_space_group_IT_number 2
_space_group_name_H-M_alt 'P-1'
_space_group_name_Hall '-P 1'
loop_
_symmetry_equiv_pos_site_id
_symmetry_equiv_pos_as_xyz
 1 'x,y,z'
 2 '-x,-y,-z'
loop_
_atom_site_label
_atom_site_type_symbol
_atom_site_fract_x
_atom_site_fract_y
_atom_site_fract_z
C1    C     0.90412383987260 0.11175098907435 0.59700309002968 
C2    C     0.35173113927333 0.31596191021242 0.88292904001376 
C3    C     0.86768935955020 0.19084350892337 0.55806923988561 
C4    C     0.26683326022698 0.40582384949127 0.92994687985227 
C5    C     0.65552111014590 0.05137301949412 0.55366900999027 
C6    C     0.38798420028136 0.32206487108805 0.95727555001488 
C7    C     0.48373103878324 0.83463879072153 0.58826432016505 
C8    C     0.59355872052793 0.15196582098132 0.93699496011922 
C9    C     0.51590584882519 0.74801223933838 0.62882972015106 
C10   C     0.68528603958743 0.05566800890846 0.88870496996240 
C11   C     0.73082756114488 0.88989226062438 0.63327245987851 
C12   C     0.56102631986389 0.13811451071198 0.86113277998964 
C13   C     0.76307931998208 0.80405952987811 0.67381828992341 
C14   C     0.65238674950261 0.04000989064302 0.81291564002147 
C15   C     0.59259048022623 0.58585723970067 0.70824284984079 
C16   C     0.85866406091910 0.87078033007857 0.79268416991183 
C17   C     0.38110747013557 0.44480503960035 0.70380959987336 
C18   C     0.98142467965970 0.79027795952819 0.81988310989917 
C19   C     0.34352879032555 0.52519684067004 0.66502860984465 
C20   C     0.89568196874870 0.87962535948753 0.86691844017557 
H1    H     0.06672025937464 0.21957620065375 0.60055883000560 
H2    H     0.25940137108139 0.38102792969877 0.86176638988416 
H3    H     0.00178351049200 0.36212912002925 0.53064533997658 
H4    H     0.10883497073781 0.54632359928882 0.94602859986498 
H5    H     0.62891454990099 0.11624562047697 0.52270147984145 
H6    H     0.32022164929952 0.39606285012499 0.99428095014276 
H7    H     0.32016225954224 0.72720013001038 0.58493660011671 
H8    H     0.68919320967662 0.08961060034329 0.95773055003089 
H9    H     0.92616251104379 0.91304810934442 0.67714846986314 
H10   H     0.55536486890975 0.09861215898243 0.79224345016950 
H11   H     0.62081496087283 0.52064162067352 0.73899622991519 
H12   H     0.92899093971540 0.79582369065045 0.75568099984706 
H13   H     0.24875669012737 0.27152186894754 0.73107309996171 
H14   H     0.14258521040254 0.65468747102623 0.80345340995001 
H15   H     0.18063299964360 0.41729325063593 0.66157698988328 
H16   H     0.98895295004328 0.81691893908251 0.88803387987008 
