data_stdin
_audit_creation_method 'critic2'
_audit_creation_date 2023-8-11
_chemical_formula_sum 'C10 H8'
_cell_formula_units_Z 8
_cell_length_a         8.7934166106
_cell_length_b        14.1848073900
_cell_length_c        11.8633129215
_cell_angle_alpha        89.9998
_cell_angle_beta        94.2567
_cell_angle_gamma        89.9999
_cell_volume          1475.663769
_space_group_crystal_system monoclinic
_space_group_IT_number 15
_space_group_name_H-M_alt 'C2/c'
_space_group_name_Hall '-C 2yc'
loop_
_symmetry_equiv_pos_site_id
_symmetry_equiv_pos_as_xyz
 1 'x,y,z'
 2 '-x,-y,-z'
 3 '-x,y,-1/2-z'
 4 '-1/2+x,-1/2-y,-1/2+z'
 5 '-1/2+x,-1/2+y,z'
 6 '-1/2-x,-1/2-y,-z'
 7 '-1/2-x,-1/2+y,-1/2-z'
 8 'x,-y,-1/2+z'
loop_
_atom_site_label
_atom_site_type_symbol
_atom_site_fract_x
_atom_site_fract_y
_atom_site_fract_z
C1    C     0.06739840690447 0.38600093766227 0.08352184132788 
C2    C     0.97639284090359 0.30788038400094 0.09466237985507 
C3    C     0.96678893439978 0.23711984595547 0.01041464307789 
C4    C     0.04699752490579 0.24623932055230 0.91553472594441 
C5    C     0.13861715126277 0.32683760500311 0.89979853469527 
C6    C     0.15053138297925 0.39768608972575 0.98635550268376 
C7    C     0.24364125924107 0.47772947528922 0.97128979216941 
C8    C     0.32050997227351 0.48806732956859 0.87487741289122 
C9    C     0.30659697365249 0.41889781450112 0.78876622006568 
C10   C     0.21800994459032 0.33994094485153 0.80124022689796 
H1    H     0.07491460210684 0.44069906695026 0.14827954017977 
H2    H     0.91169949335613 0.30022836058173 0.16884874729667 
H3    H     0.89601051874947 0.17528965854757 0.02116994397887 
H4    H     0.04223947127406 0.19126855190710 0.85119484458127 
H5    H     0.25093350450998 0.53162272400752 0.03683827138913 
H6    H     0.39140263302494 0.54999413306696 0.86450847724856 
H7    H     0.36738155998716 0.42778902296131 0.71282659769420 
H8    H     0.20666091714751 0.28692327461934 0.73478584081066 
