data_stdin
_audit_creation_method 'critic2'
_audit_creation_date 2023-8-11
_chemical_formula_sum 'C10 H8'
_cell_formula_units_Z 8
_cell_length_a        25.1511938708
_cell_length_b         7.2243965802
_cell_length_c         8.1827226103
_cell_angle_alpha        90.0003
_cell_angle_beta        90.0004
_cell_angle_gamma        90.0008
_cell_volume          1486.818692
_space_group_crystal_system orthorhombic
_space_group_IT_number 60
_space_group_name_H-M_alt 'Pbcn'
_space_group_name_Hall '-P 2n 2ab'
loop_
_symmetry_equiv_pos_site_id
_symmetry_equiv_pos_as_xyz
 1 'x,y,z'
 2 '-x,-y,-z'
 3 '-1/2-x,-1/2-y,-1/2+z'
 4 '-1/2+x,-1/2+y,-1/2-z'
 5 '-1/2+x,-1/2-y,-z'
 6 '-1/2-x,-1/2+y,z'
 7 '-x,y,-1/2-z'
 8 'x,-y,-1/2+z'
loop_
_atom_site_label
_atom_site_type_symbol
_atom_site_fract_x
_atom_site_fract_y
_atom_site_fract_z
C1    C     0.94614727996680 0.33297948939010 0.57735719029714 
C2    C     0.96736413002771 0.21691488970095 0.46034512989239 
C3    C     0.93510124981528 0.08125922040495 0.38418336056826 
C4    C     0.88228440987163 0.06349375996440 0.42668513984411 
C5    C     0.85927128983857 0.18082706020569 0.54650178989057 
C6    C     0.89187193994729 0.31861419949497 0.62370816983427 
C7    C     0.86904043013448 0.43449699959050 0.74484997038903 
C8    C     0.81639330990627 0.41502468987241 0.78884256953829 
C9    C     0.78401649004719 0.28029769017148 0.71193844946352 
C10   C     0.80506570011381 0.16568058938732 0.59342275019991 
H1    H     0.97081736004968 0.43769585979380 0.63588155047434 
H2    H     0.00920884999737 0.22793533980924 0.42746159984447 
H3    H     0.95203816010316 0.98930225985613 0.29245626949626 
H4    H     0.85756203991686 0.95844695989719 0.36908510002113 
H5    H     0.89384242999275 0.53860955051410 0.80347859960612 
H6    H     0.79988859015330 0.50317177952613 0.88412859960925 
H7    H     0.74243783991500 0.26650880018326 0.74703189976484 
H8    H     0.78051661995773 0.05977265021031 0.53603185943583 
