data_stdin
_audit_creation_method 'critic2'
_audit_creation_date 2023-8-11
_chemical_formula_sum 'C10 H8'
_cell_formula_units_Z 8
_cell_length_a        11.4042098900
_cell_length_b        14.1701174600
_cell_length_c         9.6103185100
_cell_angle_alpha        90.0000
_cell_angle_beta        90.0000
_cell_angle_gamma        90.0000
_cell_volume          1553.017800
_space_group_crystal_system orthorhombic
_space_group_IT_number 64
_space_group_name_H-M_alt 'Cmce'
_space_group_name_Hall '-C 2bc 2'
loop_
_symmetry_equiv_pos_site_id
_symmetry_equiv_pos_as_xyz
 1 'x,y,z'
 2 '-x,-y,-z'
 3 '-3/4-x,-1/2+y,-z'
 4 '-3/4+x,-1/2-y,z'
 5 '-3/4+x,-y,-z'
 6 '-3/4-x,y,z'
 7 '-x,-1/2-y,z'
 8 '-3/4+x,-1/2+y,-1/2-z'
 9 '-3/4+x,y,-1/2+z'
 10 '-3/4-x,-y,-1/2-z'
 11 '-1/2-x,-1/2+y,-1/2-z'
 12 '-1/2+x,-1/2-y,-1/2+z'
 13 '-1/2+x,-y,-1/2-z'
 14 '-1/2-x,y,-1/2+z'
 15 '-3/4-x,-1/2-y,-1/2+z'
 16 '-1/2+x,-1/2+y,-z'
 17 '-1/2+x,y,z'
 18 '-1/2-x,-y,-z'
 19 '-1/4-x,-1/2+y,-z'
 20 '-1/4+x,-1/2-y,z'
 21 '-1/4+x,-y,-z'
 22 '-1/4-x,y,z'
 23 '-1/2-x,-1/2-y,z'
 24 '-1/4+x,-1/2+y,-1/2-z'
 25 '-1/4+x,y,-1/2+z'
 26 '-1/4-x,-y,-1/2-z'
 27 '-x,-1/2+y,-1/2-z'
 28 'x,-1/2-y,-1/2+z'
 29 'x,-y,-1/2-z'
 30 '-x,y,-1/2+z'
 31 '-1/4-x,-1/2-y,-1/2+z'
 32 'x,-1/2+y,-z'
loop_
_atom_site_label
_atom_site_type_symbol
_atom_site_fract_x
_atom_site_fract_y
_atom_site_fract_z
C1    C     0.12499810015335 0.89056838987294 0.35988872003540 
C2    C     0.12499434978393 0.82123239988639 0.25917465007359 
C3    C     0.12500297028469 0.84595189976688 0.11643779009091 
C4    C     0.12500376998936 0.93941486985986 0.07644710029652 
C5    C     0.12499531960122 0.01247797002149 0.17759876005823 
H1    H     0.12500074040640 0.87238989977286 0.47004276038330 
H2    H     0.12494986007312 0.74699710001159 0.28837137986096 
H3    H     0.12501660998454 0.79054702983358 0.03796779974898 
H4    H     0.12500322019240 0.95841445966527 0.96660196015977 
