data_stdin
_audit_creation_method 'critic2'
_audit_creation_date 2023-8-11
_chemical_formula_sum 'C10 H8'
_cell_formula_units_Z 8
_cell_length_a        25.9618593992
_cell_length_b         7.1471878272
_cell_length_c         8.1298355091
_cell_angle_alpha        89.9995
_cell_angle_beta        93.5002
_cell_angle_gamma        90.0039
_cell_volume          1505.711795
_space_group_crystal_system monoclinic
_space_group_IT_number 15
_space_group_name_H-M_alt 'C2/c'
_space_group_name_Hall '-C 2yc'
loop_
_symmetry_equiv_pos_site_id
_symmetry_equiv_pos_as_xyz
 1 'x,y,z'
 2 '-1/2-x,-1/2-y,-z'
 3 '-1/2-x,-1/2+y,-1/2-z'
 4 'x,-y,-1/2+z'
 5 '-1/2+x,-1/2+y,z'
 6 '-x,-y,-z'
 7 '-x,y,-1/2-z'
 8 '-1/2+x,-1/2-y,-1/2+z'
loop_
_atom_site_label
_atom_site_type_symbol
_atom_site_fract_x
_atom_site_fract_y
_atom_site_fract_z
C1    C     0.13076823015591 0.57116759055411 0.77300168022852 
C2    C     0.18224083002442 0.59338642045906 0.82184548968838 
C3    C     0.21287205993253 0.72581533002159 0.74236117983530 
C4    C     0.19121661010860 0.83488554986250 0.61611654981594 
C5    C     0.13817296983198 0.81752136041446 0.56475251010146 
C6    C     0.10735182981218 0.68224545939761 0.64460325995733 
C7    C     0.05426451997458 0.66546122984673 0.59318748002629 
C8    C     0.03248266006716 0.77771187943227 0.46950356021385 
C9    C     0.06299826017684 0.91133284948146 0.39109449939407 
C10   C     0.11468404985606 0.93054830938448 0.43776935998429 
H1    H     0.10733443998504 0.46892495996121 0.83364828043257 
H2    H     0.19911509989108 0.50850514069116 0.92255520049142 
H3    H     0.25359522984651 0.74178910045605 0.78084604001276 
H4    H     0.21441226014724 0.93659979023871 0.55363086949979 
H5    H     0.03095587017355 0.56232951020650 0.65350500034929 
H6    H     0.99155062994235 0.76525311002346 0.43304108955473 
H7    H     0.04565575014325 0.00036085017708 0.29410642990874 
H8    H     0.13820673991351 0.03318439952658 0.37797654023636 
