data_stdin
_audit_creation_method 'critic2'
_audit_creation_date 2023-8-11
_chemical_formula_sum 'C10 H8'
_cell_formula_units_Z 8
_cell_length_a        15.8494712264
_cell_length_b         5.9001357322
_cell_length_c        15.9514767734
_cell_angle_alpha        89.9994
_cell_angle_beta        90.0024
_cell_angle_gamma        89.9997
_cell_volume          1491.686900
_space_group_crystal_system orthorhombic
_space_group_IT_number 61
_space_group_name_H-M_alt 'Pbca'
_space_group_name_Hall '-P 2ac 2ab'
loop_
_symmetry_equiv_pos_site_id
_symmetry_equiv_pos_as_xyz
 1 'x,y,z'
 2 '-x,-y,-z'
 3 '-1/2+x,-1/2-y,-z'
 4 '-1/2-x,-1/2+y,z'
 5 '-x,-1/2+y,-1/2-z'
 6 'x,-1/2-y,-1/2+z'
 7 '-1/2-x,-y,-1/2+z'
 8 '-1/2+x,y,-1/2-z'
loop_
_atom_site_label
_atom_site_type_symbol
_atom_site_fract_x
_atom_site_fract_y
_atom_site_fract_z
C1    C     0.42956363003738 0.23898845044275 0.24901216980159 
C2    C     0.42318236015536 0.27540712044967 0.33419014984244 
C3    C     0.38249575022561 0.47176467059824 0.36531925970931 
C4    C     0.34955807001609 0.63046358044396 0.31078335995204 
C5    C     0.35640899016750 0.59970993033014 0.22270202994024 
C6    C     0.39684755984433 0.39917918044025 0.19121604008637 
C7    C     0.40378417995111 0.36838907925522 0.10316458024542 
C8    C     0.37164130028968 0.52778016965593 0.04849840976531 
C9    C     0.33128398002991 0.72456135043551 0.07964043023446 
C10   C     0.32420785970959 0.76039914044427 0.16478586019878 
H1    H     0.46066010981020 0.08775665010861 0.22514696994223 
H2    H     0.45104234011242 0.15382412981067 0.37742982991162 
H3    H     0.37802096975336 0.49779073083200 0.43275988017162 
H4    H     0.31796184969865 0.78200522957049 0.33414237990043 
H5    H     0.43502441991728 0.21624718080248 0.07990787001705 
H6    H     0.37683573019636 0.50255653957538 0.98106582993874 
H7    H     0.30463506000694 0.84809109982933 0.03643615995368 
H8    H     0.29337937999891 0.91231341944087 0.18834518980506 
