data_stdin
_audit_creation_method 'critic2'
_audit_creation_date 2023-8-11
_chemical_formula_sum 'C10 H8'
_cell_formula_units_Z 8
_cell_length_a        12.4917515505
_cell_length_b         3.9389801797
_cell_length_c        29.3200946888
_cell_angle_alpha        92.4202
_cell_angle_beta        89.4902
_cell_angle_gamma        81.8692
_cell_volume          1426.750861
_space_group_crystal_system triclinic
_space_group_IT_number 2
_space_group_name_H-M_alt 'P-1'
_space_group_name_Hall '-P 1'
loop_
_symmetry_equiv_pos_site_id
_symmetry_equiv_pos_as_xyz
 1 'x,y,z'
 2 '-x,-y,-z'
loop_
_atom_site_label
_atom_site_type_symbol
_atom_site_fract_x
_atom_site_fract_y
_atom_site_fract_z
C1    C     0.29381206018517 0.26665669887118 0.41727908985768 
C2    C     0.80658721998277 0.54421589001152 0.43215105990155 
C3    C     0.70861835029180 0.17131329040997 0.07904907987118 
C4    C     0.21370786969211 0.68174150125778 0.08023368999872 
C5    C     0.36932966035517 0.30943052927805 0.45025333006776 
C6    C     0.87980998017178 0.68073837877144 0.45983168001746 
C7    C     0.63095323971060 0.24455424001481 0.04642978010414 
C8    C     0.13978020004782 0.76077097023146 0.04630976016479 
C9    C     0.47859603984179 0.16218578961017 0.44338224006425 
C10   C     0.97853401996461 0.75424528955816 0.44129932004676 
C11   C     0.52258257986651 0.19809956953105 0.05526807992972 
C12   C     0.03063496965838 0.71245349093718 0.05255452015469 
C13   C     0.51045216041702 0.97444427018988 0.40361302989933 
C14   C     0.00187799986205 0.69287451984266 0.39539594988266 
C15   C     0.49381517961637 0.07993300986215 0.09657611005898 
C16   C     0.99735522020012 0.58522840044785 0.09256063015014 
C17   C     0.43496051984756 0.92747328081634 0.36884631999213 
C18   C     0.92824320971746 0.55234631067927 0.36600333996037 
C19   C     0.57148531008987 0.00494684094779 0.13105002002569 
C20   C     0.07122000006926 0.50330757046916 0.12824967010291 
C21   C     0.32411504975454 0.07597657957588 0.37589631000514 
C22   C     0.82843397009991 0.47600505027838 0.38483673988234 
C23   C     0.68149951042291 0.05036705013215 0.12197533993030 
C24   C     0.18192396988000 0.55234782912227 0.12194315011909 
C25   C     0.24858749011980 0.02738810984278 0.34120315014950 
C26   C     0.75468662017555 0.33518518112054 0.35556956999791 
C27   C     0.75946078958208 0.97217194055293 0.15622857002977 
C28   C     0.25590484974757 0.46793404083979 0.15753458014879 
C29   C     0.28052437995828 0.83798204879452 0.30155007994793 
C30   C     0.77782472013741 0.27292962086418 0.30968337013262 
C31   C     0.73069296993732 0.85356950024755 0.19750476002122 
C32   C     0.22292468008126 0.33539000933058 0.19723434012338 
C33   C     0.38993506039703 0.69265677914626 0.29453284987440 
C34   C     0.87651485027227 0.34646258075932 0.29115171997819 
C35   C     0.62204869008061 0.81198801033389 0.20665336984926 
C36   C     0.11368430031565 0.28832863971190 0.20350578990288 
C37   C     0.46540350036185 0.73712104964291 0.32746035995796 
C38   C     0.94992605010893 0.48419818067913 0.31865750002678 
C39   C     0.54421040018497 0.88660025087621 0.17412376998943 
C40   C     0.03947136988487 0.37249115968229 0.16985265997386 
H1    H     0.20966834976121 0.38083044042254 0.42237831991553 
H2    H     0.73079445008489 0.48417209005953 0.44623966007527 
H3    H     0.79223434984536 0.20650034908068 0.07237394006957 
H4    H     0.29788337979375 0.71792085124395 0.07546698007589 
H5    H     0.34520674997494 0.46104320994681 0.48150552999779 
H6    H     0.86180945021051 0.73219496983284 0.49608320008642 
H7    H     0.65273285028262 0.34093308890588 0.01385844994723 
H8    H     0.16517975960678 0.86386721919423 0.01473230008960 
H9    H     0.53734105969223 0.19617223061903 0.46981319996721 
H10   H     0.03571654002825 0.86303658940220 0.46339354982495 
H11   H     0.46201499024754 0.25397017963977 0.02913667986327 
H12   H     0.97302616982044 0.77343100908370 0.02544623011574 
H13   H     0.59429116038293 0.85800926094318 0.39840933990232 
H14   H     0.07724697004943 0.75328558034843 0.38098284993739 
H15   H     0.41050038037133 0.04334538109422 0.10337323996250 
H16   H     0.91350564965539 0.54575755020268 0.09728941997149 
H17   H     0.16457673965900 0.14243423057283 0.34642853007234 
H18   H     0.67943550977606 0.27457017963198 0.37006426982821 
H19   H     0.84299351047519 0.00526320896418 0.14919986991220 
H20   H     0.33982522004181 0.50652795022841 0.15277099983196 
H21   H     0.22166706971951 0.79803679051457 0.27539084986013 
H22   H     0.72079233006790 0.16306190014435 0.28761827999192 
H23   H     0.79157788008547 0.79110855943642 0.22332613991843 
H24   H     0.28078177971806 0.26441258047529 0.22395308011129 
H25   H     0.41427031026027 0.54085383955346 0.26328120011688 
H26   H     0.89419438995662 0.29287698889517 0.25491679995292 
H27   H     0.60027309966789 0.71901336070727 0.23943488015350 
H28   H     0.08870606032854 0.18080041992362 0.23483225009056 
H29   H     0.54967031972071 0.62451951998883 0.32235608985015 
H30   H     0.02531278953073 0.54563840104710 0.30428747012504 
H31   H     0.46041047021564 0.85500506982314 0.18109266988590 
H32   H     0.95516761032187 0.33767164023026 0.17456070999043 
