data_stdin
_audit_creation_method 'critic2'
_audit_creation_date 2023-8-11
_chemical_formula_sum 'C10 H8'
_cell_formula_units_Z 16
_cell_length_a         7.7258850320
_cell_length_b        55.5679779487
_cell_length_c         7.1240775043
_cell_angle_alpha        89.9465
_cell_angle_beta        89.9999
_cell_angle_gamma        89.9755
_cell_volume          3058.448988
_space_group_crystal_system triclinic
_space_group_IT_number 1
_space_group_name_H-M_alt 'P1'
_space_group_name_Hall 'P 1'
loop_
_symmetry_equiv_pos_site_id
_symmetry_equiv_pos_as_xyz
 1 'x,y,z'
 2 'x,-1/2+y,-1/2+z'
 3 '-1/2+x,y,-1/2+z'
 4 '-1/2+x,-1/2+y,z'
loop_
_atom_site_label
_atom_site_type_symbol
_atom_site_fract_x
_atom_site_fract_y
_atom_site_fract_z
C1    C     0.35880535972156 0.80763716995832 0.50789622931932 
C2    C     0.64110382991630 0.19235611993300 0.50736251943121 
C3    C     0.89104392951994 0.05762396999720 0.75797842007438 
C4    C     0.60904650979094 0.44236938998182 0.75744565949701 
C5    C     0.33813848051128 0.78523250003706 0.42825970936619 
C6    C     0.66181466956495 0.21476261001670 0.42743921992591 
C7    C     0.91178978935617 0.03521997999024 0.67831314953424 
C8    C     0.58825545041081 0.46477515998541 0.67749294027843 
C9    C     0.48404112052407 0.77191200003255 0.36783862981751 
C10   C     0.51594809990679 0.22809025992761 0.36680979001297 
C11   C     0.76593061008287 0.02190721991067 0.61789860060092 
C12   C     0.73407757050082 0.47809499997825 0.61686935052421 
C13   C     0.64843768941160 0.78109832992106 0.39128684046908 
C14   C     0.35153517030466 0.21890693001208 0.39034015065861 
C15   C     0.60149991055258 0.03110005993306 0.64138748998810 
C16   C     0.89852484005062 0.46890505999975 0.64043994956038 
C17   C     0.67424064952884 0.80405960994593 0.47372168979102 
C18   C     0.32567945063163 0.19594447992133 0.47308139041857 
C19   C     0.57561703047512 0.05406097998829 0.72385337977768 
C20   C     0.92446178972543 0.44594300992843 0.72321262987342 
C21   C     0.52602363937122 0.81774343998870 0.53161771993573 
C22   C     0.47386629020027 0.18225409008499 0.53117951039735 
C23   C     0.72378897995816 0.06773709996901 0.78173795962659 
C24   C     0.77632087953812 0.43226041995045 0.78130035026298 
C25   C     0.55193994991350 0.84089972992534 0.61093297978280 
C26   C     0.44790824972894 0.15909530005789 0.61077562065043 
C27   C     0.69779494007406 0.09089302003089 0.86108394008928 
C28   C     0.80235785936634 0.40910203008655 0.86092764963520 
C29   C     0.71673248043481 0.84996736991739 0.63432657982957 
C30   C     0.28310073982644 0.15003100994078 0.63425359984543 
C31   C     0.53297084021776 0.09996747005259 0.88452470047041 
C32   C     0.96719714971786 0.40003084008281 0.88445252979118 
C33   C     0.86281290990391 0.83634567003640 0.57873200974788 
C34   C     0.13704669048667 0.16365952998187 0.57847616013834 
C35   C     0.38693353003518 0.08635366006862 0.82893807065513 
C36   C     0.11320720986242 0.41365136998653 0.82868200931136 
C37   C     0.84185577949525 0.81394817002440 0.49931541949836 
C38   C     0.15804575957453 0.18605990001419 0.49878479063120 
C39   C     0.40796770937680 0.06395688996526 0.74948811961486 
C40   C     0.09212986961241 0.43605099005355 0.74895673999261 
H1    H     0.24659441951881 0.81793594007888 0.55361834066333 
H2    H     0.75329253964493 0.18205277998388 0.55324077982914 
H3    H     0.00322096944656 0.06791693004944 0.80369190996024 
H4    H     0.49689247957187 0.43207194005492 0.80331608024951 
H5    H     0.20900892961333 0.77774406001392 0.41058773006524 
H6    H     0.79096134034593 0.22224635002225 0.40969660029790 
H7    H     0.04094685046838 0.02772610008806 0.66061565028853 
H8    H     0.45908104975495 0.47226436008584 0.65972466064636 
H9    H     0.46582647057919 0.75450668993338 0.30024900033553 
H10   H     0.53420488024125 0.24549649001662 0.29898266963717 
H11   H     0.78420337942523 0.00450269000523 0.55028132948119 
H12   H     0.71576172063493 0.49550043000950 0.54901415935120 
H13   H     0.76143324995618 0.77101012002013 0.34500742006901 
H14   H     0.23856349007593 0.22899907005141 0.34389070022252 
H15   H     0.48854132043473 0.02101705994738 0.59511388063227 
H16   H     0.01145886032393 0.47899192007160 0.59399562987537 
H17   H     0.43956769938708 0.85135310993675 0.65466316035250 
H18   H     0.56026217995713 0.14863700005175 0.65464507993033 
H19   H     0.81013333050751 0.10134062999057 0.90479948973342 
H20   H     0.69003840010307 0.39864959005102 0.90478317050657 
H21   H     0.73474369952120 0.86769189991218 0.69634229952680 
H22   H     0.26505472013841 0.13230353996079 0.69646942023298 
H23   H     0.51489878939843 0.11769159001588 0.94656595040745 
H24   H     0.98530479054247 0.38230380007624 0.94669441957146 
H25   H     0.99230526036368 0.84357379001132 0.60037902047012 
H26   H     0.00754256055149 0.15643333001969 0.60018952956034 
H27   H     0.25741628997576 0.09358775991023 0.85061389935710 
H28   H     0.24273653043247 0.40641917002687 0.85042430016042 
H29   H     0.95384064031323 0.80346609006052 0.45553895043411 
H30   H     0.04607810062826 0.19654644000947 0.45486505980736 
H31   H     0.29601631974325 0.05348094999657 0.70571906032528 
H32   H     0.20406331946339 0.44653131996726 0.70504367983145 
