data_stdin
_audit_creation_method 'critic2'
_audit_creation_date 2023-8-11
_chemical_formula_sum 'C10 H8'
_cell_formula_units_Z 4
_cell_length_a        16.1732072484
_cell_length_b         5.9834014933
_cell_length_c         8.1736991636
_cell_angle_alpha        90.0016
_cell_angle_beta        65.4762
_cell_angle_gamma        90.0017
_cell_volume           719.620569
_space_group_crystal_system triclinic
_space_group_IT_number 1
_space_group_name_H-M_alt 'P 1'
_space_group_name_Hall 'P 1'
loop_
_symmetry_equiv_pos_site_id
_symmetry_equiv_pos_as_xyz
 1 'x,y,z'
loop_
_atom_site_label
_atom_site_type_symbol
_atom_site_fract_x
_atom_site_fract_y
_atom_site_fract_z
C1    C     0.21448892012020 0.99511682043462 0.15374509951767 
C2    C     0.71448881021154 0.49511714048748 0.15374519941625 
C3    C     0.78551155995723 0.99512937984991 0.84626474988424 
C4    C     0.28551142002109 0.49512927038173 0.84626495053957 
C5    C     0.12817297995688 0.05826442998121 0.17759681950202 
C6    C     0.62817286013291 0.55826482022889 0.17759705946731 
C7    C     0.87182689010678 0.05828031992978 0.82241334003349 
C8    C     0.37182671033055 0.55828027062918 0.82241376938729 
C9    C     0.09156916994627 0.26509399919328 0.26010181045075 
C10   C     0.59156907010216 0.76509434933055 0.26010218945784 
C11   C     0.90843075016192 0.26510301923045 0.73989927943380 
C12   C     0.40843057011887 0.76510300001347 0.73989980043690 
C13   C     0.14212916024012 0.40679643040952 0.31580871948303 
C14   C     0.64212910999668 0.90679667024131 0.31580905993979 
C15   C     0.85787072981144 0.40679518933485 0.68418472031046 
C16   C     0.35787059984021 0.90679513000599 0.68418506933471 
C17   C     0.23160686029935 0.34789266066405 0.29110533997204 
C18   C     0.73160684010180 0.84789285035629 0.29110550958060 
C19   C     0.76839306971052 0.34788952056615 0.70889035056160 
C20   C     0.26839299031078 0.84788938937056 0.70889044943842 
C21   C     0.26838830967735 0.13731292930763 0.20889088017731 
C22   C     0.76838824965445 0.63731313069854 0.20889094018074 
C23   C     0.73161188994136 0.13731617971186 0.79111324989667 
C24   C     0.23161178996240 0.63731603013193 0.79111330002866 
C25   C     0.35786667019680 0.07840735955924 0.18418263947458 
C26   C     0.85786662012989 0.57840747069993 0.18418257962887 
C27   C     0.64213358986659 0.07840864079257 0.81582367952417 
C28   C     0.14213352962342 0.57840845945713 0.81582353060892 
C29   C     0.40842740994891 0.22010843033541 0.23988783949161 
C30   C     0.90842742025515 0.72010843952704 0.23988773986460 
C31   C     0.59157281970653 0.22009942039335 0.76011081051454 
C32   C     0.09157280972159 0.72009921064511 0.76011050040516 
C33   C     0.37182367027288 0.42693713048704 0.32239525996863 
C34   C     0.87182370987628 0.92693711962348 0.32239524961522 
C35   C     0.62817657981864 0.42692130075191 0.67759441035237 
C36   C     0.12817660038764 0.92692108933236 0.67759411944365 
C37   C     0.28550722001715 0.49008686927596 0.34625086965067 
C38   C     0.78550724989175 0.99008695033405 0.34625101014878 
C39   C     0.71449241012556 0.49007445025885 0.65373914039282 
C40   C     0.21449239005671 0.99007427059482 0.65373904986939 
H1    H     0.24261273013285 0.83589005005519 0.09089843953304 
H2    H     0.74261259960435 0.33589038013555 0.09089847046931 
H3    H     0.75738802990946 0.83590755990513 0.90911792952025 
H4    H     0.25738788016647 0.33590743038128 0.90911808019966 
H5    H     0.08860157002361 0.94972819068090 0.13033388026044 
H6    H     0.58860142001342 0.44972866950715 0.13033414011676 
H7    H     0.91139764031200 0.94975359062383 0.86968408998615 
H8    H     0.41139741987963 0.44975354968029 0.86968462942074 
H9    H     0.02306959982338 0.31234697026465 0.27961071053503 
H10   H     0.52306948963301 0.81234735048583 0.27961124038631 
H11   H     0.97692977009821 0.31235895934887 0.72039117010798 
H12   H     0.47692955021526 0.81235902035495 0.72039191980977 
H13   H     0.11460517012410 0.56676729019675 0.37854500969513 
H14   H     0.61460514015138 0.06676748991804 0.37854547032734 
H15   H     0.88539432975288 0.56676142938001 0.62144218060404 
H16   H     0.38539421024635 0.06676140013465 0.62144259982875 
H17   H     0.38538893017687 0.91843435050479 0.12144781039519 
H18   H     0.88538886020595 0.41843448002938 0.12144766946462 
H19   H     0.61461173032803 0.91844022972942 0.87856472986060 
H20   H     0.11461163981619 0.41844006009301 0.87856456040005 
H21   H     0.47692526005226 0.17285012955926 0.22038670033604 
H22   H     0.97692526972281 0.67285006019985 0.22038651039728 
H23   H     0.52307554974304 0.17283806024053 0.77961097043104 
H24   H     0.02307556016111 0.67283783043613 0.77961052036913 
H25   H     0.41139652997409 0.53547017928482 0.36965705980878 
H26   H     0.91139661021026 0.03547009989807 0.36965700946045 
H27   H     0.58860437010289 0.53544484960238 0.63032481041278 
H28   H     0.08860443015754 0.03544458971460 0.63032435954078 
H29   H     0.25738596992204 0.64931482961521 0.40909966943205 
H30   H     0.75738602002658 0.14931488059045 0.40909990988795 
H31   H     0.74261335985660 0.64929748021675 0.59088387063296 
H32   H     0.24261335999990 0.14929730055270 0.59088378976337 
