data_stdin
_audit_creation_method 'critic2'
_audit_creation_date 2023-8-11
_chemical_formula_sum 'C10 H8'
_cell_formula_units_Z 4
_cell_length_a         6.1692115649
_cell_length_b        11.0448229700
_cell_length_c        11.4004643114
_cell_angle_alpha        90.0000
_cell_angle_beta        65.6216
_cell_angle_gamma        90.0002
_cell_volume           707.543048
_space_group_crystal_system monoclinic
_space_group_IT_number 14
_space_group_name_H-M_alt 'P2_1/c'
_space_group_name_Hall '-P 2ybc'
loop_
_symmetry_equiv_pos_site_id
_symmetry_equiv_pos_as_xyz
 1 'x,y,z'
 2 '-x,-y,-z'
 3 '-x,-1/2+y,-1/2-z'
 4 'x,-1/2-y,-1/2+z'
loop_
_atom_site_label
_atom_site_type_symbol
_atom_site_fract_x
_atom_site_fract_y
_atom_site_fract_z
C1    C     0.84189233039082 0.69982805987922 0.36980701968291 
C2    C     0.72089445986085 0.76929409015645 0.47768216025458 
C3    C     0.47128755963575 0.75843203022589 0.54563457024184 
C4    C     0.34579347937664 0.67859257042623 0.50430807019908 
C5    C     0.46491951027785 0.60521361974866 0.39386379981242 
C6    C     0.71883154912286 0.61550200989930 0.32542172038388 
C7    C     0.83796265968959 0.54032040987094 0.21652298955994 
C8    C     0.71228721940013 0.45959932023144 0.17610783048124 
C9    C     0.46229271103334 0.44981058979546 0.24296569962726 
C10   C     0.34192490026343 0.52092544010636 0.34956723999013 
H1    H     0.03401655004035 0.70895238037380 0.31762076001720 
H2    H     0.81545767984864 0.83315966985034 0.51224778033499 
H3    H     0.38098640982313 0.81369776959914 0.63112439980733 
H4    H     0.15347860919266 0.66978303954844 0.55675625006816 
H5    H     0.03099509972678 0.54683611959962 0.16567194025267 
H6    H     0.80394052051046 0.40213452013996 0.09260316021888 
H7    H     0.36639614054219 0.38486523986396 0.21037433029864 
H8    H     0.14970207026811 0.51281250005945 0.40174722002308 
