data_stdin
_audit_creation_method 'critic2'
_audit_creation_date 2023-8-11
_chemical_formula_sum 'C10 H8'
_cell_formula_units_Z 2
_cell_length_a        12.3115003463
_cell_length_b         7.1716759690
_cell_length_c         3.9582305880
_cell_angle_alpha        90.0178
_cell_angle_beta        85.9417
_cell_angle_gamma        90.0136
_cell_volume           348.612015
_space_group_crystal_system triclinic
_space_group_IT_number 2
_space_group_name_H-M_alt 'P-1'
_space_group_name_Hall '-P 1'
loop_
_symmetry_equiv_pos_site_id
_symmetry_equiv_pos_as_xyz
 1 'x,y,z'
 2 '-1/2-x,-1/2-y,-z'
loop_
_atom_site_label
_atom_site_type_symbol
_atom_site_fract_x
_atom_site_fract_y
_atom_site_fract_z
C1    C     0.23639088012097 0.99787985950027 0.36173468963415 
C2    C     0.76348031023668 0.49770348006115 0.63704135883564 
C3    C     0.33995014006791 0.96220597030898 0.22113941932308 
C4    C     0.65985265005941 0.46188430993800 0.77693397089097 
C5    C     0.42087676987856 0.10236577977809 0.21686987931664 
C6    C     0.57897816005679 0.60208181014105 0.78164943922860 
C7    C     0.39710095014488 0.27548454069184 0.35424536881140 
C8    C     0.60285337990354 0.77535872051649 0.64526365097988 
C9    C     0.29108356997497 0.31707976975090 0.49831576946218 
C10   C     0.70893687976005 0.81708807933348 0.50183091896267 
H1    H     0.17437413994398 0.88927942954168 0.36810821052749 
H2    H     0.82546123997450 0.38908492935886 0.63038981952524 
H3    H     0.35967740024083 0.82572208974149 0.11297421123925 
H4    H     0.64001528001704 0.32522785987361 0.88407135025875 
H5    H     0.50224928017811 0.07219606040613 0.10481260008615 
H6    H     0.49757223013547 0.57180891032961 0.89334561988392 
H7    H     0.45981201994069 0.38261257066245 0.35590780022956 
H8    H     0.54018020960056 0.88251615936454 0.64387125110336 
