data_stdin
_audit_creation_method 'critic2'
_audit_creation_date 2023-8-11
_chemical_formula_sum 'C10 H8'
_cell_formula_units_Z 4
_cell_length_a         5.8923860404
_cell_length_b         4.6193352926
_cell_length_c        27.3320594598
_cell_angle_alpha        89.9942
_cell_angle_beta        83.1856
_cell_angle_gamma        89.9971
_cell_volume           738.693290
_space_group_crystal_system monoclinic
_space_group_IT_number 14
_space_group_name_H-M_alt 'P2_1/c'
_space_group_name_Hall '-P 2ybc'
loop_
_symmetry_equiv_pos_site_id
_symmetry_equiv_pos_as_xyz
 1 'x,y,z'
 2 '-x,-y,-z'
 3 '-x,-1/2+y,-1/2-z'
 4 'x,-1/2-y,-1/2+z'
loop_
_atom_site_label
_atom_site_type_symbol
_atom_site_fract_x
_atom_site_fract_y
_atom_site_fract_z
C1    C     0.95376021009236 0.56505839059762 0.66907330019070 
C2    C     0.87566698966363 0.37166107030421 0.70569321000767 
C3    C     0.66528925080741 0.22574895935965 0.70427489996928 
C4    C     0.53690561029523 0.27525236925682 0.66608330000503 
C5    C     0.61265278970003 0.47251509980887 0.62774849017876 
C6    C     0.82578110941009 0.62073501072839 0.62926882006755 
C7    C     0.90109440080249 0.81944224948420 0.59115396990716 
C8    C     0.77245162011666 0.86951867905754 0.55305980997167 
C9    C     0.56338050023336 0.72138642992145 0.55126596015929 
C10   C     0.48541640071018 0.52710718997884 0.58776451984828 
H1    H     0.11564446075922 0.67769925059823 0.67015250987533 
H2    H     0.97654888956096 0.32970302057609 0.73583423997459 
H3    H     0.60581263050907 0.07234811002943 0.73324924002967 
H4    H     0.37577426021180 0.16157906899951 0.66461884999665 
H5    H     0.06125429928329 0.93477787991431 0.59293055003822 
H6    H     0.82981715027098 0.02726084039458 0.52465633988104 
H7    H     0.46404143074198 0.75990196020190 0.52076468990142 
H8    H     0.32464068995881 0.41272732975174 0.58626380996308 
