data_stdin
_audit_creation_method 'critic2'
_audit_creation_date 2023-8-11
_chemical_formula_sum 'C10 H8'
_cell_formula_units_Z 4
_cell_length_a         5.8791490944
_cell_length_b        22.0035406233
_cell_length_c         5.7875024351
_cell_angle_alpha        89.9746
_cell_angle_beta        89.9985
_cell_angle_gamma        89.9984
_cell_volume           748.683371
_space_group_crystal_system monoclinic
_space_group_IT_number 7
_space_group_name_H-M_alt 'Pc'
_space_group_name_Hall 'P -2yc'
loop_
_symmetry_equiv_pos_site_id
_symmetry_equiv_pos_as_xyz
 1 'x,y,z'
 2 '-1/2-x,-1/2+y,-1/2+z'
loop_
_atom_site_label
_atom_site_type_symbol
_atom_site_fract_x
_atom_site_fract_y
_atom_site_fract_z
C1    C     0.93912522968476 0.10883959989370 0.99441719974889 
C2    C     0.06041668960109 0.89114545003092 0.49480166066221 
C3    C     0.90316970985230 0.15374861987948 0.15640585954348 
C4    C     0.09645910938247 0.84623688982312 0.65692220041517 
C5    C     0.70335539938065 0.18950409013230 0.14896891923303 
C6    C     0.29633504929284 0.81050426998196 0.64961564018985 
C7    C     0.54310020000896 0.18000885018743 0.97872903058873 
C8    C     0.45654344987955 0.82001616019747 0.47929876007171 
C9    C     0.57394699918904 0.13370756977791 0.81093661085518 
C10   C     0.42559491080159 0.86631037005583 0.31134923037727 
C11   C     0.77626191024644 0.09716593998853 0.81886866930136 
C12   C     0.22327348068256 0.90284692003222 0.31922377925290 
C13   C     0.80565010016346 0.05059258017583 0.65159169044274 
C14   C     0.19389156002846 0.94942805000741 0.15181667076869 
C15   C     0.64171631945902 0.03989961991542 0.48599952933667 
C16   C     0.35781699013534 0.96012204002326 0.98617531082365 
C17   C     0.44216056943082 0.07579881019608 0.47884739929706 
C18   C     0.55735900986204 0.92421747982268 0.97905047934698 
C19   C     0.40976382948628 0.12185998992421 0.63681615036499 
C20   C     0.58974893068292 0.87815045982719 0.13712758058516 
H1    H     0.09387526029759 0.08166458015772 0.99916543049051 
H2    H     0.90566873932177 0.91832093007710 0.49954037984163 
H3    H     0.02848341941379 0.16151190006567 0.29163946945290 
H4    H     0.97120150977880 0.83845701016316 0.79223637052261 
H5    H     0.67588324937656 0.22437165977487 0.27955320007389 
H6    H     0.32386316980105 0.77565900016078 0.78038668989289 
H7    H     0.38976478023649 0.20776457005405 0.97162439995685 
H8    H     0.60987650067853 0.79226175006302 0.47219504971466 
H9    H     0.96046093026774 0.02333011978604 0.65666150037029 
H10   H     0.03910948034706 0.97670152980773 0.15680720009134 
H11   H     0.66356063917972 0.00400402994967 0.35843375075707 
H12   H     0.33589683996302 0.99601112016570 0.85846884045529 
H13   H     0.31505749949180 0.06673609998553 0.34675112054485 
H14   H     0.68443126999683 0.93328074981086 0.84688849035107 
H15   H     0.25624281009380 0.14960442019529 0.63237417054896 
H16   H     0.74324350080326 0.85039652020494 0.13277693052760 
