data_stdin
_audit_creation_method 'critic2'
_audit_creation_date 2023-8-11
_chemical_formula_sum 'C10 H8'
_cell_formula_units_Z 16
_cell_length_a        18.9962450639
_cell_length_b        30.8583843854
_cell_length_c         5.1983670650
_cell_angle_alpha        90.0015
_cell_angle_beta        89.9976
_cell_angle_gamma        90.0012
_cell_volume          3047.248627
_space_group_crystal_system orthorhombic
_space_group_IT_number 43
_space_group_name_H-M_alt 'Fdd2'
_space_group_name_Hall 'F 2 -2d'
loop_
_symmetry_equiv_pos_site_id
_symmetry_equiv_pos_as_xyz
 1 'x,y,z'
 2 '-x,-1/2-y,-1/2+z'
 3 '-3/4-x,-3/4+y,-3/4+z'
 4 '-3/4+x,-3/4-y,-3/4+z'
 5 'x,-1/2+y,-1/2+z'
 6 '-x,-y,z'
 7 '-3/4-x,-1/4+y,-1/4+z'
 8 '-3/4+x,-1/4-y,-1/4+z'
 9 '-1/2+x,y,-1/2+z'
 10 '-1/2-x,-1/2-y,z'
 11 '-1/4-x,-3/4+y,-1/4+z'
 12 '-1/4+x,-3/4-y,-1/4+z'
 13 '-1/2+x,-1/2+y,z'
 14 '-1/2-x,-y,-1/2+z'
 15 '-1/4-x,-1/4+y,-3/4+z'
 16 '-1/4+x,-1/4-y,-3/4+z'
loop_
_atom_site_label
_atom_site_type_symbol
_atom_site_fract_x
_atom_site_fract_y
_atom_site_fract_z
C1    C     0.56250680014704 0.43699588001585 0.50181366930365 
C2    C     0.56176942005751 0.39238308012232 0.51659085083001 
C3    C     0.60083988975935 0.36728408010802 0.33878441014850 
C4    C     0.64072927026066 0.38725838008340 0.15132601912000 
C5    C     0.64262810975745 0.43311644994818 0.13085294965636 
C6    C     0.60192194008580 0.45853197991881 0.30803375062800 
C7    C     0.60281188984777 0.50434085989923 0.28410056992065 
C8    C     0.64231087003204 0.52421140987056 0.09519850080014 
C9    C     0.68312314005418 0.49920982995809 0.92251724055134 
C10   C     0.68311382975892 0.45460920000938 0.94002157001561 
H1    H     0.53374972988330 0.45628205985378 0.64262515012433 
H2    H     0.53106602003998 0.37638860006888 0.66579276044966 
H3    H     0.59945373021297 0.33206513992516 0.35089918985714 
H4    H     0.67183350009575 0.36815703994498 0.01656721004857 
H5    H     0.57154989020007 0.52363349008430 0.41726781014906 
H6    H     0.64246290001305 0.55939953988399 0.07930426967699 
H7    H     0.71471225978557 0.51507431003088 0.77536141918510 
H8    H     0.71394772021477 0.43528532986904 0.80550527999686 
