data_stdin
_audit_creation_method 'critic2'
_audit_creation_date 2023-8-11
_chemical_formula_sum 'C10 H8'
_cell_formula_units_Z 4
_cell_length_a        11.7152160900
_cell_length_b         6.1461536700
_cell_length_c        10.0121228500
_cell_angle_alpha        90.0000
_cell_angle_beta        90.0000
_cell_angle_gamma        89.9999
_cell_volume           720.908072
_space_group_crystal_system orthorhombic
_space_group_IT_number 29
_space_group_name_H-M_alt 'Pca2_1'
_space_group_name_Hall 'P 2c -2ac'
loop_
_symmetry_equiv_pos_site_id
_symmetry_equiv_pos_as_xyz
 1 'x,y,z'
 2 '-x,-y,-1/2+z'
 3 '-1/2-x,y,-1/2+z'
 4 '-1/2+x,-y,z'
loop_
_atom_site_label
_atom_site_type_symbol
_atom_site_fract_x
_atom_site_fract_y
_atom_site_fract_z
C1    C     0.10071312011600 0.46484666013554 0.00415600042352 
C2    C     0.19892976970468 0.47898164012120 0.07973570967819 
C3    C     0.28080582033934 0.30994824043313 0.07705862997031 
C4    C     0.26357890974370 0.12924644928083 0.99787644982494 
C5    C     0.16391046026962 0.10991412015973 0.91808041008767 
C6    C     0.08057411963950 0.28140779080439 0.92122691970593 
C7    C     0.98107110968724 0.26211037939767 0.84087391017023 
C8    C     0.96415292020250 0.08107065970929 0.76159149953112 
C9    C     0.04574364024883 0.91123133006482 0.75944636996860 
C10   C     0.14342881016273 0.92604245995316 0.83570583017266 
H1    H     0.03787609012231 0.59542367932374 0.00617468049623 
H2    H     0.21421798013515 0.62188326920844 0.14143036038232 
H3    H     0.35713197962208 0.32179234072242 0.13861986018116 
H4    H     0.32675000962557 0.99936474938851 0.99542893959676 
H5    H     0.91850898958296 0.39351913004201 0.84340546047730 
H6    H     0.88760837015653 0.06506571006744 0.70066042047345 
H7    H     0.03034620000009 0.76917378014675 0.69700196017445 
H8    H     0.20597467996362 0.79501138941219 0.83527987028387 
