data_stdin
_audit_creation_method 'critic2'
_audit_creation_date 2023-8-11
_chemical_formula_sum 'C10 H8'
_cell_formula_units_Z 8
_cell_length_a        29.0919204628
_cell_length_b         5.9555287031
_cell_length_c         8.1449991120
_cell_angle_alpha        90.0009
_cell_angle_beta        89.4870
_cell_angle_gamma        89.9986
_cell_volume          1411.127794
_space_group_crystal_system monoclinic
_space_group_IT_number 15
_space_group_name_H-M_alt 'C2/c'
_space_group_name_Hall '-C 2yc'
loop_
_symmetry_equiv_pos_site_id
_symmetry_equiv_pos_as_xyz
 1 'x,y,z'
 2 '-x,-y,-z'
 3 '-x,y,-1/2-z'
 4 'x,-y,-1/2+z'
 5 '-1/2+x,-1/2+y,z'
 6 '-1/2-x,-1/2-y,-z'
 7 '-1/2-x,-1/2+y,-1/2-z'
 8 '-1/2+x,-1/2-y,-1/2+z'
loop_
_atom_site_label
_atom_site_type_symbol
_atom_site_fract_x
_atom_site_fract_y
_atom_site_fract_z
C1    C     0.14514966003576 0.00485460949834 0.32290979035159 
C2    C     0.18917188983039 0.94319954977191 0.36586965033928 
C3    C     0.20746215991915 0.73440241983744 0.31356700051275 
C4    C     0.18141971004944 0.59060637939470 0.21963347961238 
C5    C     0.13595276988850 0.64848628983452 0.17428954979441 
C6    C     0.11744464016836 0.86022125966744 0.22697693029416 
C7    C     0.07194837003084 0.91807850009000 0.18146233000060 
C8    C     0.04614610993685 0.77441164021850 0.08650907943488 
C9    C     0.06460190012847 0.56646745078727 0.03328036991018 
C10   C     0.10846715016966 0.50414641027956 0.07734823987922 
H1    H     0.13106423995946 0.16530952048395 0.36281242971681 
H2    H     0.20975280990289 0.05560048956044 0.44101590014918 
H3    H     0.24222502010463 0.68632542930255 0.34756255985640 
H4    H     0.19518812012311 0.42956133968706 0.17940857993432 
H5    H     0.05801476012042 0.07879597998897 0.22212306048271 
H6    H     0.01132264001066 0.82097478021247 0.05225515962485 
H7    H     0.04437704987038 0.45655636986773 0.95522117996414 
H8    H     0.12271230010929 0.34416304971711 0.03701645998231 
