data_stdin
_audit_creation_method 'critic2'
_audit_creation_date 2023-8-11
_chemical_formula_sum 'C10 H8'
_cell_formula_units_Z 4
_cell_length_a         5.8594750979
_cell_length_b         4.4521493406
_cell_length_c        28.8414898360
_cell_angle_alpha        89.9993
_cell_angle_beta        84.3404
_cell_angle_gamma        90.0009
_cell_volume           748.727744
_space_group_crystal_system monoclinic
_space_group_IT_number 14
_space_group_name_H-M_alt 'P2_1/c'
_space_group_name_Hall '-P 2ybc'
loop_
_symmetry_equiv_pos_site_id
_symmetry_equiv_pos_as_xyz
 1 'x,y,z'
 2 '-x,-y,-z'
 3 '-x,-1/2+y,-1/2-z'
 4 'x,-1/2-y,-1/2+z'
loop_
_atom_site_label
_atom_site_type_symbol
_atom_site_fract_x
_atom_site_fract_y
_atom_site_fract_z
C1    C     0.95633631031871 0.17731140961754 0.33295878010468 
C2    C     0.11755839937832 0.13244264000049 0.29543712006971 
C3    C     0.33313078035403 0.27771297080537 0.29362878987801 
C4    C     0.38365248967438 0.46575989073846 0.32922049016940 
C5    C     0.22165692922292 0.51613224002033 0.36832210999451 
C6    C     0.00311906013454 0.36881613890903 0.37022129006298 
C7    C     0.84156909947094 0.41848028916141 0.40947698010648 
C8    C     0.89287797012508 0.60508666043264 0.44518122991051 
C9    C     0.10856614030909 0.75034812110370 0.44325504009394 
C10   C     0.26897064050267 0.70718898951433 0.40559625014204 
H1    H     0.79071872993461 0.06445319021169 0.33462962010605 
H2    H     0.08020459011102 0.98257268048297 0.26730856003671 
H3    H     0.45994941979946 0.23902919942150 0.26403087002302 
H4    H     0.54967845080868 0.57752478922419 0.32786484013436 
H5    H     0.67574655939179 0.30619916924659 0.41097932992046 
H6    H     0.76768312059768 0.63989052915200 0.47521399013120 
H7    H     0.14660003981921 0.89843857095151 0.47152563013766 
H8    H     0.43452250080029 0.82026036095197 0.40378403011241 
