data_stdin
_audit_creation_method 'critic2'
_audit_creation_date 2023-8-11
_chemical_formula_sum 'C10 H8'
_cell_formula_units_Z 4
_cell_length_a        13.3234367601
_cell_length_b         4.4003388126
_cell_length_c        13.2681609300
_cell_angle_alpha        90.0013
_cell_angle_beta        89.9997
_cell_angle_gamma        90.0015
_cell_volume           777.880907
_space_group_crystal_system orthorhombic
_space_group_IT_number 33
_space_group_name_H-M_alt 'Pna2_1'
_space_group_name_Hall 'P 2c -2n'
loop_
_symmetry_equiv_pos_site_id
_symmetry_equiv_pos_as_xyz
 1 'x,y,z'
 2 '-x,-y,-1/2+z'
 3 '-1/2-x,-1/2+y,-1/2+z'
 4 '-1/2+x,-1/2-y,z'
loop_
_atom_site_label
_atom_site_type_symbol
_atom_site_fract_x
_atom_site_fract_y
_atom_site_fract_z
C1    C     0.42199122000841 0.22671431101529 0.99574180998371 
C2    C     0.33694952988767 0.13067071992972 0.04559571989987 
C3    C     0.24140838985593 0.24010697980249 0.01640043968091 
C4    C     0.23244070982547 0.44259759094203 0.93757224962423 
C5    C     0.31841560972050 0.54294513000133 0.88387946028487 
C6    C     0.41536441004881 0.43349305890297 0.91390477036953 
C7    C     0.50125259002088 0.53232635043787 0.85977190992073 
C8    C     0.49217281999150 0.73181103057548 0.78015344991977 
C9    C     0.39672257974657 0.84294866895567 0.75141478035491 
C10   C     0.31178297997145 0.74934600061258 0.80194968972105 
H1    H     0.49547622989814 0.13983544078441 0.01741631009090 
H2    H     0.34243967015288 0.96451708978826 0.10620526025117 
H3    H     0.17513085972000 0.16061928941886 0.05656181991981 
H4    H     0.15902195014394 0.52881325939077 0.91519604021748 
H5    H     0.57476779024867 0.44670643104778 0.88191034018831 
H6    H     0.55853292989890 0.80589241072595 0.73905105025333 
H7    H     0.39064350965287 0.00729463054466 0.69035650004234 
H8    H     0.23842753011165 0.83708326937769 0.78021968034804 
