data_stdin
_audit_creation_method 'critic2'
_audit_creation_date 2023-8-11
_chemical_formula_sum 'C10 H8'
_cell_formula_units_Z 6
_cell_length_a         7.5135154847
_cell_length_b         7.5135101852
_cell_length_c        23.2992936176
_cell_angle_alpha        90.0432
_cell_angle_beta        90.0008
_cell_angle_gamma       120.0013
_cell_volume          1139.078746
_space_group_crystal_system monoclinic
_space_group_IT_number 5
_space_group_name_H-M_alt 'C2'
_space_group_name_Hall 'C 2y'
loop_
_symmetry_equiv_pos_site_id
_symmetry_equiv_pos_as_xyz
 1 'x,y,z'
 2 'x-y,-y,-1/3-z'
loop_
_atom_site_label
_atom_site_type_symbol
_atom_site_fract_x
_atom_site_fract_y
_atom_site_fract_z
C1    C     0.22532416064731 0.55789045011385 0.44205450992406 
C2    C     0.44224607968827 0.66790297012069 0.77543382994646 
C3    C     0.33239061077511 0.77451108040402 0.10872869997326 
C4    C     0.02210983971854 0.42966275932948 0.45632316993929 
C5    C     0.57038192059717 0.59278143031040 0.78968498006281 
C6    C     0.40739537995439 0.97778902979933 0.12300261016903 
C7    C     0.93274124018327 0.21410001947365 0.45099972020951 
C8    C     0.78593246956010 0.71874766977387 0.78432607006070 
C9    C     0.28123857973659 0.06715628048519 0.11766765989663 
C10   C     0.04814626962293 0.13028385043009 0.43153932008651 
C11   C     0.86982933965854 0.91788463992635 0.76484874021095 
C12   C     0.08200245965491 0.95168431991829 0.09820206983647 
C13   C     0.25708150965280 0.25808922979765 0.41593022008778 
C14   C     0.74211168949737 0.99913906938020 0.74925111001286 
C15   C     0.00084879015813 0.74267794955860 0.08259110995376 
C16   C     0.34775687990297 0.47672608923743 0.42133229015668 
C17   C     0.52349328096684 0.87141282060367 0.75468880998990 
C18   C     0.12877928004594 0.65201080952761 0.08799765016228 
C19   C     0.55486959024116 0.60459082037321 0.40384556986561 
C20   C     0.39569922973395 0.95076748044425 0.73721194007513 
C21   C     0.04951264985133 0.44482180933315 0.07050675998254 
C22   C     0.66710099063533 0.52125321997467 0.38156863995977 
C23   C     0.47908782982329 0.14623334938157 0.71491741983037 
C24   C     0.85392068926472 0.33249595976559 0.04823094985569 
C25   C     0.57783789034224 0.30536696937461 0.37664635995366 
C26   C     0.69496896960056 0.27263929029251 0.70996267021462 
C27   C     0.72732421049565 0.42175268001162 0.04330534018092 
C28   C     0.37792975920692 0.17688694950201 0.39385805983410 
C29   C     0.82338134981396 0.20109563050170 0.72715726001247 
C30   C     0.79877366935939 0.62174036976870 0.06051636996673 
H1    H     0.29401378085513 0.72403915047160 0.44573282005925 
H2    H     0.27609964974608 0.57062051992523 0.77914085016805 
H3    H     0.42981420981759 0.70580407970979 0.11241116009631 
H4    H     0.92760973940251 0.49324782980482 0.47082529010316 
H5    H     0.50671269991822 0.43475825978707 0.80420387017211 
H6    H     0.56548541922200 0.07232773975926 0.13751452985338 
H7    H     0.77176937026449 0.11533724985294 0.46232655017391 
H8    H     0.88463174953294 0.65644834938068 0.79564584013681 
H9    H     0.34347181022168 0.22817714975280 0.12899680989149 
H10   H     0.98071874002864 0.96430346038147 0.42782674005361 
H11   H     0.03580618073612 0.01628580029110 0.76111311996698 
H12   H     0.98346131957036 0.01910515034017 0.09448299992044 
H13   H     0.62269675043843 0.77076767052596 0.40741936014631 
H14   H     0.22952619956730 0.85256462964073 0.74080755986114 
H15   H     0.14785328007063 0.37700360027087 0.07408249988733 
H16   H     0.82432725959815 0.62032130927225 0.36699962010284 
H17   H     0.38006133991541 0.20446800063307 0.70035898999105 
H18   H     0.79573866973768 0.17520211007386 0.03366423007466 
H19   H     0.66944055918855 0.24267850944137 0.35919601017711 
H20   H     0.75770126022785 0.42685293045583 0.69249846988483 
H21   H     0.57301830006733 0.33007224955518 0.02585541987814 
H22   H     0.30798693931092 0.01069337950650 0.38970009983770 
H23   H     0.98956906989351 0.29717445984136 0.72297321990281 
H24   H     0.70254473022219 0.69168637026279 0.05636181995665 
