data_stdin
_audit_creation_method 'critic2'
_audit_creation_date 2023-8-11
_chemical_formula_sum 'C10 H8'
_cell_formula_units_Z 6
_cell_length_a        11.4040295467
_cell_length_b        11.3996388851
_cell_length_c        10.2716856584
_cell_angle_alpha        90.0319
_cell_angle_beta        90.0001
_cell_angle_gamma       120.0115
_cell_volume          1156.302618
_space_group_crystal_system monoclinic
_space_group_IT_number 5
_space_group_name_H-M_alt 'C2'
_space_group_name_Hall 'C 2y'
loop_
_symmetry_equiv_pos_site_id
_symmetry_equiv_pos_as_xyz
 1 'x,y,z'
 2 'x-y,-y,-1/3-z'
loop_
_atom_site_label
_atom_site_type_symbol
_atom_site_fract_x
_atom_site_fract_y
_atom_site_fract_z
C1    C     0.91905729004407 0.49581610974068 0.97820566967285 
C2    C     0.50433332953631 0.42320061992908 0.31162249024321 
C3    C     0.57658106959385 0.08087493005774 0.64469410000849 
C4    C     0.83738100995271 0.48967613997379 0.08001317958412 
C5    C     0.51056554030373 0.34773449000034 0.41343219015398 
C6    C     0.65219415012501 0.16252916985036 0.74656605978463 
C7    C     0.77783377028599 0.37535624983019 0.16308595027302 
C8    C     0.62491220978117 0.40261000015919 0.49652445005946 
C9    C     0.59754565009408 0.22210411956680 0.82981431003585 
C10   C     0.80095152968237 0.26911919960566 0.14275728033981 
C11   C     0.73108653017786 0.53199508958679 0.47620579951985 
C12   C     0.46823863991842 0.19904000021394 0.80959278032933 
C13   C     0.88440090952456 0.27216302950934 0.03889837978182 
C14   C     0.72794732979439 0.61232857968876 0.37234132989199 
C15   C     0.38775761006251 0.11561701005916 0.70567111994057 
C16   C     0.94534179000614 0.38837032011015 0.95492404980991 
C17   C     0.61171032049703 0.55696007041271 0.28835299032301 
C18   C     0.44289194999151 0.05463852049455 0.62152305027675 
C19   C     0.03129605979007 0.39272695018361 0.85281774003415 
C20   C     0.60726233010613 0.63848677980585 0.18623997993415 
C21   C     0.36120558041077 0.96869727996937 0.51936149953192 
C22   C     0.05645704963394 0.28744629974245 0.83434219958522 
C23   C     0.71248852989694 0.76895418959370 0.16776141035759 
C24   C     0.23081633976795 0.94360835030921 0.50098019024087 
C25   C     0.99621403986998 0.17285580017999 0.91698635957732 
C26   C     0.82711425962497 0.82339927976485 0.25041180023466 
C27   C     0.17660516012390 0.00390248979869 0.58378599000827 
C28   C     0.91174279003811 0.16534461959823 0.01672047029674 
C29   C     0.83470466012847 0.74651421993063 0.35016343962850 
C30   C     0.25364571961871 0.08833921986851 0.68359613007536 
H1    H     0.96671281977353 0.58446751019205 0.91520744035350 
H2    H     0.41566065965241 0.38212574009054 0.24861318032474 
H3    H     0.61748009001165 0.03319420005787 0.58156264993149 
H4    H     0.81956120997138 0.57351400990949 0.09881562981362 
H5    H     0.42678114996980 0.24605577044069 0.43222241980855 
H6    H     0.75381447032729 0.18030576022780 0.76529063979910 
H7    H     0.71512063979217 0.37255959985072 0.24412464014970 
H8    H     0.62777165998731 0.34274727033915 0.57756995961795 
H9    H     0.65751709978774 0.28479447024450 0.91090208016093 
H10   H     0.75804438008720 0.18255168997546 0.20865115954507 
H11   H     0.81767945063962 0.57574207041904 0.54210921036039 
H12   H     0.42467137983739 0.24196602995580 0.87561889046188 
H13   H     0.07851657971637 0.48122365982690 0.78953018969749 
H14   H     0.51874051035967 0.59713135999554 0.12294597016700 
H15   H     0.40237279953838 0.92143794949451 0.45594287040842 
H16   H     0.12222954017910 0.29221462985501 0.75525076005288 
H17   H     0.70764975973905 0.82990090023827 0.08866437961002 
H18   H     0.16975397049123 0.87786082033353 0.42183144032721 
H19   H     0.01728472977412 0.09066805023339 0.90187725980926 
H20   H     0.90926329049221 0.92667342037104 0.23529268025593 
H21   H     0.07339155971690 0.98289990986126 0.56874319968032 
H22   H     0.86553013957455 0.07759401967699 0.08103008018548 
H23   H     0.92247858967486 0.78812913966440 0.41448230032440 
H24   H     0.21221220983853 0.13457933045291 0.74804323030837 
