data_stdin
_audit_creation_method 'critic2'
_audit_creation_date 2023-8-11
_chemical_formula_sum 'C10 H8'
_cell_formula_units_Z 18
_cell_length_a        25.2172722195
_cell_length_b        25.2063654332
_cell_length_c         5.9012885824
_cell_angle_alpha        89.9622
_cell_angle_beta        90.0475
_cell_angle_gamma       119.9966
_cell_volume          3248.633519
_space_group_crystal_system triclinic
_space_group_IT_number 2
_space_group_name_H-M_alt 'P-1'
_space_group_name_Hall '-P 1'
loop_
_symmetry_equiv_pos_site_id
_symmetry_equiv_pos_as_xyz
 1 'x,y,z'
 2 '-x,-y,-z'
 3 '-1/3+x,-2/3+y,-2/3+z'
 4 '-1/3-x,-2/3-y,-2/3-z'
 5 '-2/3+x,-1/3+y,-1/3+z'
 6 '-2/3-x,-1/3-y,-1/3-z'
loop_
_atom_site_label
_atom_site_type_symbol
_atom_site_fract_x
_atom_site_fract_y
_atom_site_fract_z
C1    C     0.15857099011242 0.19824250998512 0.57644140028805 
C2    C     0.80156281986188 0.96025150009134 0.57608096052446 
C3    C     0.03969776996574 0.84155820012182 0.57616002954732 
C4    C     0.10186345005747 0.14849484018087 0.62402666019456 
C5    C     0.85128320008574 0.95322443978500 0.62358222942338 
C6    C     0.04666794005859 0.89828255980402 0.62379895970937 
C7    C     0.07104865001017 0.14604751011885 0.82749175032771 
C8    C     0.85379211005668 0.92485183984761 0.82716393977399 
C9    C     0.07503261993969 0.92908711987556 0.82742063031270 
C10   C     0.09764280983415 0.19346597988061 0.98137579050200 
C11   C     0.80646001020748 0.90408630011590 0.98124674065725 
C12   C     0.09584472009876 0.90246790999731 0.98140492049672 
C13   C     0.15579401988850 0.24543496991108 0.93700574925323 
C14   C     0.75451437005380 0.91032511983641 0.93694630073193 
C15   C     0.08964794007586 0.84429741009483 0.93699358986706 
C16   C     0.18693296006699 0.24819370018801 0.72991788946122 
C17   C     0.75169365011299 0.93871364005039 0.72974675075520 
C18   C     0.06127029007384 0.81316817004561 0.72974612019991 
C19   C     0.24415615009393 0.30135767019862 0.68369340042407 
C20   C     0.69854755993818 0.94282038005211 0.68359196950910 
C21   C     0.05718817990500 0.75592170012975 0.68351340074060 
C22   C     0.26928358983376 0.34976014978700 0.83379455987215 
C23   C     0.65021876003376 0.91958035996949 0.83386399977862 
C24   C     0.08043639982803 0.73076317000320 0.83375701082037 
C25   C     0.23869484007212 0.34678605021293 0.03853180978344 
C26   C     0.65325619989664 0.89196230017615 0.03871552036677 
C27   C     0.10804308995890 0.76133920990852 0.03865669939226 
C28   C     0.18341526009869 0.29561219997322 0.08915873018949 
C29   C     0.70441518999595 0.88781117000630 0.08928038998659 
C30   C     0.11217251975408 0.81664160985604 0.08929097951010 
H1    H     0.18159642016043 0.19983024011294 0.41829833943035 
H2    H     0.79993204013576 0.98169783012727 0.41785654919193 
H3    H     0.01826058002276 0.81854031980184 0.41790203921173 
H4    H     0.08042528977036 0.11114642983026 0.50250504970049 
H5    H     0.88856017006616 0.96908644986973 0.50190033018857 
H6    H     0.03076946989741 0.91974252995738 0.50220024080564 
H7    H     0.02591872016725 0.10701532005570 0.86279138011820 
H8    H     0.89280162985932 0.91870111996748 0.86239828971329 
H9    H     0.08114134997539 0.97423158986769 0.86275990083980 
H10   H     0.07379407008679 0.19180081988212 0.13752405072943 
H11   H     0.80817345991200 0.88189936002950 0.13748650974504 
H12   H     0.11802551997634 0.92631034989698 0.13767227038227 
H13   H     0.26780312005566 0.30400394999699 0.52606507955532 
H14   H     0.69585316016463 0.96382716998213 0.52588484924483 
H15   H     0.03619016004566 0.73228008982896 0.52577474040906 
H16   H     0.31274287023638 0.39046452008461 0.79354615001661 
H17   H     0.60952450985767 0.92236645989282 0.79366405073130 
H18   H     0.07766250000787 0.68728662002724 0.79350346030416 
H19   H     0.25877850997156 0.38531695989585 0.15569177074973 
H20   H     0.61478492009301 0.87354831988523 0.15601773962658 
H21   H     0.12645913984750 0.74122500991544 0.15594461995743 
H22   H     0.15966620006962 0.29288335986524 0.24639836016617 
H23   H     0.70719309004805 0.86679103998018 0.24661320046100 
H24   H     0.13318143003660 0.84037714991691 0.24666403040809 
