data_stdin
_audit_creation_method 'critic2'
_audit_creation_date 2023-8-11
_chemical_formula_sum 'C10 H8'
_cell_formula_units_Z 4
_cell_length_a        10.6698207300
_cell_length_b        11.0693364101
_cell_length_c         6.1229761500
_cell_angle_alpha        89.9997
_cell_angle_beta        89.9999
_cell_angle_gamma        90.0000
_cell_volume           723.171457
_space_group_crystal_system orthorhombic
_space_group_IT_number 33
_space_group_name_H-M_alt 'Pna2_1'
_space_group_name_Hall 'P 2c -2n'
loop_
_symmetry_equiv_pos_site_id
_symmetry_equiv_pos_as_xyz
 1 'x,y,z'
 2 '-x,-y,-1/2+z'
 3 '-1/2-x,-1/2+y,-1/2+z'
 4 '-1/2+x,-1/2-y,z'
loop_
_atom_site_label
_atom_site_type_symbol
_atom_site_fract_x
_atom_site_fract_y
_atom_site_fract_z
C1    C     0.75880071045080 0.38367005980324 0.01481361042487 
C2    C     0.67042169985852 0.47450772959214 0.02393813006163 
C3    C     0.66167397996254 0.54943190036690 0.21079057038128 
C4    C     0.74160603023549 0.53255783039575 0.38537806990385 
C5    C     0.83553602984085 0.44161553042410 0.37885957960480 
C6    C     0.84441895031827 0.36547015001075 0.18952228980062 
C7    C     0.94066061039654 0.27696160980223 0.18169628980439 
C8    C     0.02428085036874 0.26409163036795 0.35204025993793 
C9    C     0.01560215012175 0.33959458043714 0.53782402033103 
C10   C     0.92336874013895 0.42662748013506 0.55083746932673 
H1    H     0.76547815962485 0.32594296980354 0.87118730026316 
H2    H     0.60677960034973 0.48943890008515 0.88747963051536 
H3    H     0.59216316028193 0.62147648036178 0.21322068056616 
H4    H     0.73574191004665 0.58992192996635 0.52978546980584 
H5    H     0.94990791974484 0.22074906011303 0.03661451976454 
H6    H     0.09825941020876 0.19666389964622 0.34240596980220 
H7    H     0.08371380955477 0.33065916970030 0.66920928049038 
H8    H     0.91791762035176 0.48614735004039 0.69205273025715 
