data_stdin
_audit_creation_method 'critic2'
_audit_creation_date 2023-8-11
_chemical_formula_sum 'C10 H8'
_cell_formula_units_Z 4
_cell_length_a         3.9712305956
_cell_length_b        23.1290834997
_cell_length_c         8.0032175752
_cell_angle_alpha        81.8522
_cell_angle_beta        89.7972
_cell_angle_gamma        88.3577
_cell_volume           727.383663
_space_group_crystal_system triclinic
_space_group_IT_number 1
_space_group_name_H-M_alt 'P1'
_space_group_name_Hall 'P 1'
loop_
_symmetry_equiv_pos_site_id
_symmetry_equiv_pos_as_xyz
 1 'x,y,z'
 2 '-1/2+x,-1/2+y,z'
loop_
_atom_site_label
_atom_site_type_symbol
_atom_site_fract_x
_atom_site_fract_y
_atom_site_fract_z
C1    C     0.94778240898986 0.81209183004227 0.01545354009209 
C2    C     0.17095163916520 0.18288590012403 0.49114475040365 
C3    C     0.00662139012881 0.83376223995697 0.16419337958685 
C4    C     0.21029097994546 0.15533695988835 0.65452505038272 
C5    C     0.89256569080080 0.89087098017507 0.18439417024689 
C6    C     0.09733602918628 0.09783472985164 0.70099018985874 
C7    C     0.71882781909862 0.92505917003948 0.05600394024497 
C8    C     0.94751508051362 0.06868022012185 0.58348703939456 
C9    C     0.65190195890214 0.90386506022052 0.90197094946489 
C10   C     0.90260816023630 0.09581927986744 0.41441842940467 
C11   C     0.76913176990671 0.84609607019304 0.88116464942237 
C12   C     0.01587650004934 0.15422524013046 0.36732952972225 
C13   C     0.70253308974701 0.82492795011922 0.72704099958570 
C14   C     0.97095160938011 0.18134846988570 0.19823460015711 
C15   C     0.52883625898161 0.85913500980583 0.59867697009493 
C16   C     0.82093140099233 0.15218554013164 0.08079301963535 
C17   C     0.41434469988158 0.91622111016918 0.61895760965950 
C18   C     0.70811469072466 0.09468076996500 0.12725004040536 
C19   C     0.47312340112427 0.93788128981906 0.76772192007206 
C20   C     0.74778286962874 0.06712708020747 0.29061492988201 
H1    H     0.03907204062634 0.76838985001721 0.99928157024451 
H2    H     0.26120223913672 0.22691872992150 0.45395019985674 
H3    H     0.14549237940924 0.80702750019416 0.26564794973613 
H4    H     0.33166051986197 0.17739304007820 0.74863479948116 
H5    H     0.94165430905664 0.90759607007070 0.30217213991003 
H6    H     0.12725547891025 0.07690512984240 0.83101457018332 
H7    H     0.62899238999867 0.96892585019937 0.07147186942941 
H8    H     0.85919845030965 0.02447239978332 0.61911975013772 
H9    H     0.79316256883419 0.78111475001824 0.71139726955002 
H10   H     0.06021145040967 0.22548521010486 0.16241082055054 
H11   H     0.47967532002199 0.84244098001587 0.48086246963063 
H12   H     0.79085980045440 0.17311827001334 0.95075381940072 
H13   H     0.27540214993652 0.94292469000435 0.51748974038658 
H14   H     0.58646794969307 0.07262713988291 0.03320897949836 
H15   H     0.38153217915398 0.98156052997815 0.78399585941141 
H16   H     0.65802131983790 0.02305974990163 0.32776550971477 
