data_stdin
_audit_creation_method 'critic2'
_audit_creation_date 2023-8-11
_chemical_formula_sum 'C10 H8'
_cell_formula_units_Z 4
_cell_length_a        11.3155863800
_cell_length_b         8.2914924700
_cell_length_c         7.8369213600
_cell_angle_alpha        90.0000
_cell_angle_beta        90.0000
_cell_angle_gamma        90.0000
_cell_volume           735.284251
_space_group_crystal_system orthorhombic
_space_group_IT_number 29
_space_group_name_H-M_alt 'Pca2_1'
_space_group_name_Hall 'P 2c -2ac'
loop_
_symmetry_equiv_pos_site_id
_symmetry_equiv_pos_as_xyz
 1 'x,y,z'
 2 '-x,-y,-1/2+z'
 3 '-1/2-x,y,-1/2+z'
 4 '-1/2+x,-y,z'
loop_
_atom_site_label
_atom_site_type_symbol
_atom_site_fract_x
_atom_site_fract_y
_atom_site_fract_z
C1    C     0.50805980433651 0.96963075243519 0.96852747300508 
C2    C     0.56183943369707 0.11886091953207 0.97338055804309 
C3    C     0.67153699128191 0.13854001491078 0.05772954277429 
C4    C     0.72590436624950 0.00921349020699 0.13591543699560 
C5    C     0.67229336389369 0.85442702294262 0.13447253586920 
C6    C     0.56072822213025 0.83447344495442 0.04965503303536 
C7    C     0.50636805748984 0.68003566388846 0.05065332138245 
C8    C     0.55916179145669 0.55118013502873 0.13197016573991 
C9    C     0.66974255655105 0.57095199790034 0.21416249233629 
C10   C     0.72519516597328 0.71909891391499 0.21501619825243 
H1    H     0.42430477306774 0.95405793748175 0.90222572222610 
H2    H     0.52035663791736 0.22134623065123 0.91036687464885 
H3    H     0.71346503785929 0.25678267594932 0.05973514991923 
H4    H     0.81038269364335 0.02390865988212 0.20048304129046 
H5    H     0.42172146126027 0.66488751302012 0.98639347573107 
H6    H     0.51558359264508 0.43409544746604 0.13345955725098 
H7    H     0.71135350301215 0.46878143468492 0.27772390354374 
H8    H     0.80986868174283 0.73452655368279 0.27896606374039 
