data_stdin
_audit_creation_method 'critic2'
_audit_creation_date 2023-8-11
_chemical_formula_sum 'C10 H8'
_cell_formula_units_Z 8
_cell_length_a         7.7174891183
_cell_length_b        15.8900868400
_cell_length_c        13.3518187981
_cell_angle_alpha        90.0004
_cell_angle_beta        78.1602
_cell_angle_gamma        90.0007
_cell_volume          1602.519895
_space_group_crystal_system monoclinic
_space_group_IT_number 15
_space_group_name_H-M_alt 'C2/c'
_space_group_name_Hall '-C 2yc'
loop_
_symmetry_equiv_pos_site_id
_symmetry_equiv_pos_as_xyz
 1 'x,y,z'
 2 '-1/2-x,-1/2-y,-z'
 3 '-x,y,-1/2-z'
 4 '-1/2+x,-1/2-y,-1/2+z'
 5 '-1/2+x,-1/2+y,z'
 6 '-x,-y,-z'
 7 '-1/2-x,-1/2+y,-1/2-z'
 8 'x,-y,-1/2+z'
loop_
_atom_site_label
_atom_site_type_symbol
_atom_site_fract_x
_atom_site_fract_y
_atom_site_fract_z
C1    C     0.14796070040031 0.80641287017115 0.10917985005092 
C2    C     0.15814407045257 0.89295909992438 0.10436126020511 
C3    C     0.00324811999685 0.94182221988442 0.10932306035811 
C4    C     0.84081261993157 0.90321981970336 0.11850896016679 
C5    C     0.82577974944646 0.81425948002984 0.12335331977401 
C6    C     0.98281086008806 0.76480025976065 0.11861869012179 
C7    C     0.96802398056380 0.67584229994777 0.12407426979048 
C8    C     0.80536256951453 0.63724555005612 0.13345524036248 
C9    C     0.65076073047566 0.68604705010549 0.13742538004138 
C10   C     0.66092330004034 0.77257271013587 0.13272362977075 
H1    H     0.26672844998808 0.76855849003559 0.10557339985646 
H2    H     0.28614637939245 0.92393011021995 0.09694325999268 
H3    H     0.01283185944552 0.01008953019927 0.10501886977601 
H4    H     0.72136891033523 0.94071160012319 0.12183232015372 
H5    H     0.08772421982231 0.63872910005272 0.12120111989817 
H6    H     0.79524232970178 0.56893489987389 0.13823888982207 
H7    H     0.52291130057915 0.65515905978304 0.14438072991123 
H8    H     0.54180465001329 0.81016786023556 0.13616740018971 
