data_stdin
_audit_creation_method 'critic2'
_audit_creation_date 2023-8-11
_chemical_formula_sum 'C10 H8'
_cell_formula_units_Z 4
_cell_length_a         5.7990078560
_cell_length_b         7.6335850400
_cell_length_c        17.2577320328
_cell_angle_alpha        90.0000
_cell_angle_beta        70.0247
_cell_angle_gamma        90.0000
_cell_volume           717.992597
_space_group_crystal_system monoclinic
_space_group_IT_number 14
_space_group_name_H-M_alt 'P2_1/c'
_space_group_name_Hall '-P 2ybc'
loop_
_symmetry_equiv_pos_site_id
_symmetry_equiv_pos_as_xyz
 1 'x,y,z'
 2 '-x,-y,-z'
 3 '-x,-1/2+y,-1/2-z'
 4 'x,-1/2-y,-1/2+z'
loop_
_atom_site_label
_atom_site_type_symbol
_atom_site_fract_x
_atom_site_fract_y
_atom_site_fract_z
C1    C     0.87862141989576 0.22132326035976 0.82815647005159 
C2    C     0.69580604017808 0.17751029027644 0.90097863997400 
C3    C     0.48228817002792 0.08907494007551 0.89990953001594 
C4    C     0.45377170952740 0.04610185004977 0.82608184001561 
C5    C     0.63804113944255 0.08961378956826 0.75004979978553 
C6    C     0.85543359958597 0.17847363012402 0.75104940018393 
C7    C     0.03960904982152 0.22176704979606 0.67490107028030 
C8    C     0.01044207075443 0.17889923024714 0.60110781979327 
C9    C     0.79627225928880 0.09117472968054 0.60020297012975 
C10   C     0.61399393928130 0.04726048988746 0.67306484013685 
H1    H     0.04236037910154 0.29007205017152 0.82894770030259 
H2    H     0.71532612001557 0.21142307989401 0.95974215018648 
H3    H     0.33966740060864 0.05450789047238 0.95775411975065 
H4    H     0.28966008960988 0.97799318943387 0.82526395971422 
H5    H     0.20390721078287 0.28986911975751 0.67558702975827 
H6    H     0.15290090954919 0.21282770050848 0.54310637985301 
H7    H     0.77556501049755 0.05766384061893 0.54159107017815 
H8    H     0.44985100056603 0.97898687008869 0.67238238978799 
