data_stdin
_audit_creation_method 'critic2'
_audit_creation_date 2023-8-11
_chemical_formula_sum 'C10 H8'
_cell_formula_units_Z 8
_cell_length_a        17.3177005402
_cell_length_b         8.1329888655
_cell_length_c        11.1936403631
_cell_angle_alpha        89.9992
_cell_angle_beta        78.6228
_cell_angle_gamma        90.0018
_cell_volume          1545.584905
_space_group_crystal_system monoclinic
_space_group_IT_number 15
_space_group_name_H-M_alt 'C2/c'
_space_group_name_Hall '-C 2yc'
loop_
_symmetry_equiv_pos_site_id
_symmetry_equiv_pos_as_xyz
 1 'x,y,z'
 2 '-1/2-x,-1/2-y,-z'
 3 '-1/2-x,-1/2+y,-1/2-z'
 4 'x,-y,-1/2+z'
 5 '-1/2+x,-1/2+y,z'
 6 '-x,-y,-z'
 7 '-x,y,-1/2-z'
 8 '-1/2+x,-1/2-y,-1/2+z'
loop_
_atom_site_label
_atom_site_type_symbol
_atom_site_fract_x
_atom_site_fract_y
_atom_site_fract_z
C1    C     0.39900497003915 0.53077561045784 0.76508143971441 
C2    C     0.36922461005223 0.46119302053638 0.67124431966561 
C3    C     0.33146018014265 0.56023903959905 0.59596583956420 
C4    C     0.32415592018090 0.72731072993583 0.61597646030809 
C5    C     0.35476972008928 0.80305619977554 0.71102582031509 
C6    C     0.39314918008738 0.70266689974836 0.78728641023340 
C7    C     0.42496606979520 0.77866891965421 0.88105807030492 
C8    C     0.41882729007752 0.94623172043887 0.89916452962923 
C9    C     0.38053809031095 0.04489427003845 0.82445440974500 
C10   C     0.34905723980623 0.97496222985950 0.73258363955869 
H1    H     0.42822065989447 0.45512177985049 0.82322801042444 
H2    H     0.37431445979843 0.32938357041502 0.65470716976749 
H3    H     0.30749950993319 0.50284598036364 0.52324791008273 
H4    H     0.29455391006682 0.80443501044158 0.55928787995414 
H5    H     0.45534268023124 0.70233246031390 0.93721482994277 
H6    H     0.44294429991658 0.00382244960997 0.97158076026839 
H7    H     0.37526988974673 0.17668241948284 0.84095333036728 
H8    H     0.31860384974758 0.05040711943188 0.67595474983053 
