data_stdin
_audit_creation_method 'critic2'
_audit_creation_date 2023-8-11
_chemical_formula_sum 'C10 H8'
_cell_formula_units_Z 8
_cell_length_a        29.9965772001
_cell_length_b         5.9614544204
_cell_length_c         8.1247329290
_cell_angle_alpha        90.0003
_cell_angle_beta        90.5624
_cell_angle_gamma        90.0005
_cell_volume          1452.820986
_space_group_crystal_system monoclinic
_space_group_IT_number 15
_space_group_name_H-M_alt 'C2/c'
_space_group_name_Hall '-C 2yc'
loop_
_symmetry_equiv_pos_site_id
_symmetry_equiv_pos_as_xyz
 1 'x,y,z'
 2 '-1/2-x,-1/2-y,-z'
 3 '-1/2-x,-1/2+y,-1/2-z'
 4 'x,-y,-1/2+z'
 5 '-1/2+x,-1/2+y,z'
 6 '-x,-y,-z'
 7 '-x,y,-1/2-z'
 8 '-1/2+x,-1/2-y,-1/2+z'
loop_
_atom_site_label
_atom_site_type_symbol
_atom_site_fract_x
_atom_site_fract_y
_atom_site_fract_z
C1    C     0.43387687004620 0.11898309467310 0.51788374817110 
C2    C     0.45683963136284 0.27857507395883 0.42957301242519 
C3    C     0.43540471606724 0.47884383121266 0.37872795629344 
C4    C     0.39138657902337 0.51687109450394 0.41773977947245 
C5    C     0.36690138854150 0.35671606132360 0.50921497468685 
C6    C     0.38857975136348 0.15322049095249 0.56017413760534 
C7    C     0.36427520370567 0.99339962549100 0.65250085507753 
C8    C     0.32044460585152 0.03277775113307 0.69335497396647 
C9    C     0.29892183096358 0.23279894559271 0.64247964554846 
C10   C     0.32162394291461 0.39135700452082 0.55209165253418 
H1    H     0.44995284137504 0.96379302974201 0.55684661764980 
H2    H     0.49165185070138 0.25178631168073 0.39846414089166 
H3    H     0.45357445991840 0.60272142508676 0.30717614488171 
H4    H     0.37486766917924 0.67068098232128 0.37865297465030 
H5    H     0.38082461733163 0.83963949535244 0.69167802738924 
H6    H     0.30265632694209 0.91011267990003 0.76718140801164 
H7    H     0.26423485975302 0.26093198564144 0.67494914327088 
H8    H     0.30533797522840 0.54612785912516 0.51288893141763 
