data_stdin
_audit_creation_method 'critic2'
_audit_creation_date 2023-8-11
_chemical_formula_sum 'C10 H8'
_cell_formula_units_Z 8
_cell_length_a         9.2455996900
_cell_length_b        11.4510666500
_cell_length_c        13.9313271100
_cell_angle_alpha        90.0000
_cell_angle_beta        89.9999
_cell_angle_gamma        90.0001
_cell_volume          1474.937161
_space_group_crystal_system orthorhombic
_space_group_IT_number 60
_space_group_name_H-M_alt 'Pbcn'
_space_group_name_Hall '-P 2n 2ab'
loop_
_symmetry_equiv_pos_site_id
_symmetry_equiv_pos_as_xyz
 1 'x,y,z'
 2 '-x,-y,-z'
 3 '-1/2-x,-1/2-y,-1/2+z'
 4 '-1/2+x,-1/2+y,-1/2-z'
 5 '-1/2+x,-1/2-y,-z'
 6 '-1/2-x,-1/2+y,z'
 7 '-x,y,-1/2-z'
 8 'x,-y,-1/2+z'
loop_
_atom_site_label
_atom_site_type_symbol
_atom_site_fract_x
_atom_site_fract_y
_atom_site_fract_z
C1    C     0.66017266949140 0.60543600973839 0.35736054994919 
C2    C     0.68987513012423 0.68940384006130 0.28896963997272 
C3    C     0.80879146024726 0.76585302023129 0.30050788994269 
C4    C     0.89704707048001 0.75630950990732 0.37990061005003 
C5    C     0.86871783961426 0.67192137956745 0.45207337988311 
C6    C     0.74702280029350 0.59509966966937 0.44105750974851 
C7    C     0.71824251987976 0.51201682975396 0.51434601034313 
C8    C     0.80594808051586 0.50450924033688 0.59422779968050 
C9    C     0.92689746987991 0.57928536982502 0.60422347035644 
C10   C     0.95763898999545 0.66100475957720 0.53460697995200 
H1    H     0.56837183003191 0.54654799031523 0.34857590969879 
H2    H     0.62162608978450 0.69839850016967 0.22568845982947 
H3    H     0.82934775974894 0.83202848018518 0.24607471981670 
H4    H     0.99037356973905 0.81353096956788 0.38885520981022 
H5    H     0.62737094037147 0.45240599015380 0.50567181996502 
H6    H     0.78441256015598 0.43946759027572 0.64935715031678 
H7    H     0.99764556971265 0.57064905969609 0.66629817966502 
H8    H     0.05173357979693 0.71744224982530 0.54166259018987 
