data_stdin
_audit_creation_method 'critic2'
_audit_creation_date 2023-8-11
_chemical_formula_sum 'C10 H8'
_cell_formula_units_Z 4
_cell_length_a        11.7230349000
_cell_length_b         6.1266747129
_cell_length_c        10.0328974800
_cell_angle_alpha        90.0000
_cell_angle_beta        90.0000
_cell_angle_gamma        89.9981
_cell_volume           720.595017
_space_group_crystal_system orthorhombic
_space_group_IT_number 29
_space_group_name_H-M_alt 'Pca2_1'
_space_group_name_Hall 'P 2c -2ac'
loop_
_symmetry_equiv_pos_site_id
_symmetry_equiv_pos_as_xyz
 1 'x,y,z'
 2 '-x,-y,-1/2+z'
 3 '-1/2-x,y,-1/2+z'
 4 '-1/2+x,-y,z'
loop_
_atom_site_label
_atom_site_type_symbol
_atom_site_fract_x
_atom_site_fract_y
_atom_site_fract_z
C1    C     0.26365928005396 0.12895799069234 0.98374989986338 
C2    C     0.28049479018361 0.30996302006041 0.90438630028737 
C3    C     0.19842250011830 0.47908467996397 0.90159794045766 
C4    C     0.10040961980153 0.46473112009498 0.97724985969330 
C5    C     0.08066514027265 0.28097423988192 0.06035012956294 
C6    C     0.16419458002645 0.10938404063267 0.06360208029294 
C7    C     0.14409236017012 0.92516346993360 0.14612660023430 
C8    C     0.04658178969743 0.91009136972047 0.22239957036827 
C9    C     0.96479383013937 0.08002524063614 0.22014387022325 
C10   C     0.98136561021857 0.26143539952702 0.14075331034025 
H1    H     0.32697122996409 0.99899404932043 0.98628276026099 
H2    H     0.35664276005166 0.32192701025304 0.84273922962674 
H3    H     0.21338555015832 0.62224046929801 0.83975892039339 
H4    H     0.03744332041235 0.59541913958359 0.97516599022939 
H5    H     0.20679017007880 0.79406045973698 0.14665076971768 
H6    H     0.03147126988838 0.76774625078078 0.28494488988613 
H7    H     0.88837478974733 0.06377228061030 0.28106268964265 
H8    H     0.91868153037450 0.39297203967327 0.13815280049385 
