data_stdin
_audit_creation_method 'critic2'
_audit_creation_date 2023-8-11
_chemical_formula_sum 'C10 H8'
_cell_formula_units_Z 4
_cell_length_a         8.8811631223
_cell_length_b        11.2226463900
_cell_length_c         9.0808879858
_cell_angle_alpha        90.0002
_cell_angle_beta        53.8064
_cell_angle_gamma        89.9998
_cell_volume           730.433993
_space_group_crystal_system monoclinic
_space_group_IT_number 9
_space_group_name_H-M_alt 'Cc'
_space_group_name_Hall 'C -2yc'
loop_
_symmetry_equiv_pos_site_id
_symmetry_equiv_pos_as_xyz
 1 'x,y,z'
 2 'x,-y,-1/2+z'
 3 '-1/2+x,-1/2+y,z'
 4 '-1/2+x,-1/2-y,-1/2+z'
loop_
_atom_site_label
_atom_site_type_symbol
_atom_site_fract_x
_atom_site_fract_y
_atom_site_fract_z
C1    C     0.01447474042364 0.73834354985156 0.00481101002781 
C2    C     0.14286878941334 0.69030618964072 0.02699773032754 
C3    C     0.11227132051702 0.57645379958352 0.10735022942714 
C4    C     0.95546927014446 0.51149254020245 0.16134491972736 
C5    C     0.82279693022848 0.55747192010389 0.13679989943863 
C6    C     0.85184762033154 0.67398394983615 0.05895608997706 
C7    C     0.71613995031981 0.72154636963646 0.03969331003755 
C8    C     0.55951285964423 0.65672362042850 0.09323038066841 
C9    C     0.53218639054826 0.54098739961439 0.16722625946918 
C10   C     0.66099191053760 0.49266093034871 0.18856562978450 
H1    H     0.03695208910537 0.82643178016882 0.94500483065628 
H2    H     0.26807274013000 0.74086296036624 0.98168855045720 
H3    H     0.21273689908991 0.53970611024798 0.12697502062458 
H4    H     0.93094693992938 0.42444082985386 0.22484396952325 
H5    H     0.73778769975903 0.81047480016965 0.98234266052964 
H6    H     0.45562092019566 0.69506702005112 0.07964255946509 
H7    H     0.40868876013886 0.48978209973896 0.20892345992349 
H8    H     0.63937384025249 0.40407733981614 0.24688410046049 
