data_stdin
_audit_creation_method 'critic2'
_audit_creation_date 2023-8-11
_chemical_formula_sum 'C10 H8'
_cell_formula_units_Z 8
_cell_length_a        14.6304621033
_cell_length_b         5.8887420038
_cell_length_c        17.4159135849
_cell_angle_alpha        90.0134
_cell_angle_beta        90.3709
_cell_angle_gamma        90.0021
_cell_volume          1500.436847
_space_group_crystal_system monoclinic
_space_group_IT_number 15
_space_group_name_H-M_alt 'C2/c'
_space_group_name_Hall '-C 2yc'
loop_
_symmetry_equiv_pos_site_id
_symmetry_equiv_pos_as_xyz
 1 'x,y,z'
 2 '-x,-y,-z'
 3 '-x,-1/2+y,-1/2-z'
 4 'x,-1/2-y,-1/2+z'
 5 '-1/2+x,-1/2+y,-1/2+z'
 6 '-1/2-x,-1/2-y,-1/2-z'
 7 '-1/2-x,y,-z'
 8 '-1/2+x,-y,z'
loop_
_atom_site_label
_atom_site_type_symbol
_atom_site_fract_x
_atom_site_fract_y
_atom_site_fract_z
C1    C     0.05791952522468 0.49570918114324 0.58174490094105 
C2    C     0.14777451815197 0.55735352017731 0.57051655910987 
C3    C     0.18045382430210 0.77043085921307 0.59663166650996 
C4    C     0.12269136715356 0.91743218123357 0.63439478272784 
C5    C     0.02980826573508 0.85902007808662 0.64705017121310 
C6    C     0.99667862376059 0.64397470566972 0.61990215573605 
C7    C     0.90400861384927 0.58526825935122 0.63302671103426 
C8    C     0.84669044996973 0.73104303244457 0.67180216634307 
C9    C     0.87951328366880 0.94273719030269 0.69903969830021 
C10   C     0.96911543251208 0.00547390173558 0.68665169616335 
H1    H     0.03286045081694 0.33233934616200 0.56122733737792 
H2    H     0.19379965228862 0.44077266565960 0.54146602321800 
H3    H     0.25132906845229 0.81865872170615 0.58685356840304 
H4    H     0.14727408588964 0.08092661405827 0.65519903241126 
H5    H     0.87928627679775 0.42171229561404 0.61240047339457 
H6    H     0.77591709984253 0.68213934112393 0.68163094458548 
H7    H     0.83424245417504 0.05642122242270 0.73030908691415 
H8    H     0.99460570289144 0.16767770782439 0.70777736963060 
