data_stdin
_audit_creation_method 'critic2'
_audit_creation_date 2023-8-11
_chemical_formula_sum 'C10 H8'
_cell_formula_units_Z 4
_cell_length_a        19.4262160402
_cell_length_b         7.6344511903
_cell_length_c         5.0261460438
_cell_angle_alpha        89.9999
_cell_angle_beta        89.9977
_cell_angle_gamma        90.0007
_cell_volume           745.420171
_space_group_crystal_system orthorhombic
_space_group_IT_number 29
_space_group_name_H-M_alt 'Pca2_1'
_space_group_name_Hall 'P 2c -2ac'
loop_
_symmetry_equiv_pos_site_id
_symmetry_equiv_pos_as_xyz
 1 'x,y,z'
 2 '-x,-y,-1/2+z'
 3 '-1/2-x,y,-1/2+z'
 4 '-1/2+x,-y,z'
loop_
_atom_site_label
_atom_site_type_symbol
_atom_site_fract_x
_atom_site_fract_y
_atom_site_fract_z
C1    C     0.18216174977524 0.26785167041336 0.97148568002760 
C2    C     0.16594372994359 0.43956487935887 0.91479627906461 
C3    C     0.11274922017168 0.52517272001885 0.05657170074594 
C4    C     0.07718795023741 0.43834233959100 0.25464313987986 
C5    C     0.09308679000940 0.26177942944297 0.31911789985509 
C6    C     0.14659445974846 0.17469320960531 0.17330666935696 
C7    C     0.16284948014852 0.99826428959826 0.23725479070223 
C8    C     0.12812619007658 0.91165164009905 0.43745384011921 
C9    C     0.07542850017497 0.99756029994543 0.58147512025461 
C10   C     0.05847969999228 0.16876216002475 0.52388407925192 
H1    H     0.22253629023774 0.20143950962843 0.86056528032027 
H2    H     0.19373118016165 0.50815544033665 0.75795196951332 
H3    H     0.10015776983738 0.66072667036121 0.00965700021688 
H4    H     0.03653094997286 0.50432445064060 0.36585487003170 
H5    H     0.20342773020228 0.93270372985661 0.12495049057645 
H6    H     0.14089912986389 0.77612326035845 0.48390024018019 
H7    H     0.04815869016332 0.92908994027053 0.73932796027777 
H8    H     0.01883283010825 0.23519223009921 0.63943024060682 
