data_stdin
_audit_creation_method 'critic2'
_audit_creation_date 2023-8-11
_chemical_formula_sum 'C10 H8'
_cell_formula_units_Z 4
_cell_length_a         5.7383254136
_cell_length_b        16.5062911800
_cell_length_c        10.0376892704
_cell_angle_alpha        89.9997
_cell_angle_beta        55.1779
_cell_angle_gamma        90.0004
_cell_volume           780.501925
_space_group_crystal_system monoclinic
_space_group_IT_number 14
_space_group_name_H-M_alt 'P2_1/c'
_space_group_name_Hall '-P 2ybc'
loop_
_symmetry_equiv_pos_site_id
_symmetry_equiv_pos_as_xyz
 1 'x,y,z'
 2 '-x,-y,-z'
 3 '-x,-1/2+y,-1/2-z'
 4 'x,-1/2-y,-1/2+z'
loop_
_atom_site_label
_atom_site_type_symbol
_atom_site_fract_x
_atom_site_fract_y
_atom_site_fract_z
C1    C     0.11661622918623 0.01273418979374 0.13341557033449 
C2    C     0.95455695930148 0.99170829015862 0.29541158045654 
C3    C     0.83288142991132 0.05228674971743 0.41701926046917 
C4    C     0.87530684004583 0.13311313974245 0.37458603994133 
C5    C     0.04097924048449 0.15691427008624 0.20897390018471 
C6    C     0.16424221894004 0.09541369987179 0.08578461046213 
C7    C     0.32992757039578 0.11927312987680 0.92015913954860 
C8    C     0.37224781038069 0.20008010977969 0.87782202025633 
C9    C     0.25065908959702 0.26076435980104 0.99933426026249 
C10   C     0.08868190971439 0.23961580977658 0.16125937028374 
H1    H     0.21023962958015 0.96610480012738 0.03984104001313 
H2    H     0.91945440974785 0.92813093976132 0.33052555045351 
H3    H     0.70569193974384 0.03443931971910 0.54417842978346 
H4    H     0.78247297923183 0.18009606012835 0.46737728993203 
H5    H     0.42274110987399 0.07226992979476 0.82740660992964 
H6    H     0.49935995045561 0.21800255981726 0.75075040015425 
H7    H     0.28682796003548 0.32418837028229 0.96314218057245 
H8    H     0.99432378982185 0.28589906985387 0.25555566946388 
