data_stdin
_audit_creation_method 'critic2'
_audit_creation_date 2023-8-11
_chemical_formula_sum 'C10 H8'
_cell_formula_units_Z 4
_cell_length_a         7.9756985289
_cell_length_b         4.0261447608
_cell_length_c        22.6118113699
_cell_angle_alpha        90.0162
_cell_angle_beta        79.7186
_cell_angle_gamma        90.0025
_cell_volume           714.436040
_space_group_crystal_system monoclinic
_space_group_IT_number 14
_space_group_name_H-M_alt 'P2_1/c'
_space_group_name_Hall '-P 2ybc'
loop_
_symmetry_equiv_pos_site_id
_symmetry_equiv_pos_as_xyz
 1 'x,y,z'
 2 '-x,-y,-z'
 3 '-x,-1/2+y,-1/2-z'
 4 'x,-1/2-y,-1/2+z'
loop_
_atom_site_label
_atom_site_type_symbol
_atom_site_fract_x
_atom_site_fract_y
_atom_site_fract_z
C1    C     0.65603295026635 0.36981744958423 0.80682883982167 
C2    C     0.48512989000427 0.30884285055559 0.82653821009511 
C3    C     0.40475641024282 0.41646774915933 0.88421639018289 
C4    C     0.49632623019662 0.58498729113613 0.92097463004794 
C5    C     0.67215550055513 0.65323220879749 0.90189364006400 
C6    C     0.75375419936945 0.54423912912134 0.84338633020591 
C7    C     0.92920816055776 0.61520652956394 0.82404901992235 
C8    C     0.02008908053043 0.78764620966270 0.86054350987783 
C9    C     0.94009347005384 0.89263205976120 0.91843618987422 
C10   C     0.76996592007313 0.82616393081341 0.93863580015135 
H1    H     0.71856338998534 0.28087147963410 0.76288104009297 
H2    H     0.41266549997025 0.17489052046247 0.79769179005684 
H3    H     0.26977527035506 0.36681708070726 0.89944271982734 
H4    H     0.43434690036229 0.66838536938889 0.96533593005509 
H5    H     0.99105602013020 0.52953853012788 0.77978516986166 
H6    H     0.15450721007633 0.84204952073857 0.84518731978433 
H7    H     0.01289331944565 0.03052952098825 0.94669228021709 
H8    H     0.70755242969953 0.90799043008170 0.98306842979346 
