data_stdin
_audit_creation_method 'critic2'
_audit_creation_date 2023-8-11
_chemical_formula_sum 'C10 H8'
_cell_formula_units_Z 4
_cell_length_a         8.7451519222
_cell_length_b        11.7040287800
_cell_length_c         7.5246030266
_cell_angle_alpha        90.0000
_cell_angle_beta       101.4873
_cell_angle_gamma        90.0000
_cell_volume           754.742201
_space_group_crystal_system monoclinic
_space_group_IT_number 14
_space_group_name_H-M_alt 'P2_1/c'
_space_group_name_Hall '-P 2ybc'
loop_
_symmetry_equiv_pos_site_id
_symmetry_equiv_pos_as_xyz
 1 'x,y,z'
 2 '-x,-y,-z'
 3 '-x,-1/2+y,-1/2-z'
 4 'x,-1/2-y,-1/2+z'
loop_
_atom_site_label
_atom_site_type_symbol
_atom_site_fract_x
_atom_site_fract_y
_atom_site_fract_z
C1    C     0.71332188952484 0.71167093984285 0.99364753943727 
C2    C     0.85218913956995 0.66617511970205 0.96616073042776 
C3    C     0.85261773977513 0.56823165997618 0.85569654970858 
C4    C     0.71417839002103 0.51640615975613 0.77642706964895 
C5    C     0.56908731028235 0.56171053983087 0.80062213987840 
C6    C     0.56863181001230 0.66177893966584 0.91083099947263 
C7    C     0.42347451046369 0.70777961001721 0.93319434017343 
C8    C     0.28491809983396 0.65852763002167 0.84789500961716 
C9    C     0.28534839982362 0.55977410037606 0.73949977001666 
C10   C     0.42453932976678 0.51176532976645 0.71794892059663 
H1    H     0.71329213951735 0.78626405963329 0.08010987978642 
H2    H     0.96237991970283 0.70536609012201 0.03074913989426 
H3    H     0.96308956996701 0.53275298040668 0.83602246055784 
H4    H     0.71395730977341 0.43996829969750 0.69381809967239 
H5    H     0.42303854018564 0.78216844967670 0.02010308947682 
H6    H     0.17439611952782 0.69509609002159 0.86564024999859 
H7    H     0.17548659020217 0.52045722035967 0.67451350952627 
H8    H     0.42524593014093 0.43451573029815 0.63760429946947 
