data_stdin
_audit_creation_method 'critic2'
_audit_creation_date 2023-8-11
_chemical_formula_sum 'C10 H8'
_cell_formula_units_Z 4
_cell_length_a         3.9303708450
_cell_length_b        30.2225156081
_cell_length_c         6.1410401024
_cell_angle_alpha        99.8135
_cell_angle_beta        85.2489
_cell_angle_gamma        93.2965
_cell_volume           715.624668
_space_group_crystal_system triclinic
_space_group_IT_number 2
_space_group_name_H-M_alt 'P-1'
_space_group_name_Hall '-P 1'
loop_
_symmetry_equiv_pos_site_id
_symmetry_equiv_pos_as_xyz
 1 'x,y,z'
 2 '-x,-y,-z'
loop_
_atom_site_label
_atom_site_type_symbol
_atom_site_fract_x
_atom_site_fract_y
_atom_site_fract_z
C1    C     0.06711968966853 0.33038318983649 0.95216279950351 
C2    C     0.66270774031165 0.84749709005598 0.82710852075668 
C3    C     0.07108613000235 0.29613630015403 0.07407389030162 
C4    C     0.58931457901164 0.80487573993351 0.71595933938206 
C5    C     0.92378265023016 0.30159943993453 0.29460174067500 
C6    C     0.69381356068056 0.79306948997861 0.48834066017218 
C7    C     0.77175997036688 0.34101497987391 0.38872660058928 
C8    C     0.87236631912119 0.82398712997569 0.37634416978021 
C9    C     0.76446412000002 0.37700372001562 0.26826909942246 
C10   C     0.94857748097062 0.86828621010675 0.48580754040162 
C11   C     0.91646851028044 0.37160214000893 0.04521541968178 
C12   C     0.84110123045433 0.88032624995702 0.71628436057205 
C13   C     0.91173386119472 0.40772959995671 0.92542201967141 
C14   C     0.91664470892710 0.92463713000006 0.82569357932374 
C15   C     0.76173941926181 0.44725993986561 0.02006814060686 
C16   C     0.09145347983361 0.95574572986261 0.71335766078707 
C17   C     0.61180533069094 0.45257935999862 0.23989314942419 
C18   C     0.19583963994249 0.94398685006823 0.48571077059709 
C19   C     0.61328072987233 0.41818935014607 0.36116187055163 
C20   C     0.12587490881859 0.90121982996485 0.37497365038035 
H1    H     0.18245620027047 0.32647045992110 0.78280482009738 
H2    H     0.58464836967124 0.85648323009241 0.00265560055206 
H3    H     0.19212161099788 0.26491794992432 0.00248840940917 
H4    H     0.44879870903256 0.78017251998175 0.80260793939167 
H5    H     0.93227606100164 0.27445066987491 0.38974353017846 
H6    H     0.63191879121682 0.75935771001365 0.40194804916914 
H7    H     0.65657234935824 0.34516734013980 0.55805588046286 
H8    H     0.95654909097446 0.81490887995259 0.20154882986336 
H9    H     0.02864250921496 0.40370965985497 0.75654401932870 
H10   H     0.83416274087685 0.93351523010836 0.00087229078547 
H11   H     0.76029255984502 0.47468035014109 0.92600463069385 
H12   H     0.14980492976715 0.98957724999614 0.79933800964903 
H13   H     0.49130102879182 0.48378954991878 0.31237783972118 
H14   H     0.33171411012833 0.96892137011940 0.39831328022922 
H15   H     0.49706781082550 0.42209982006417 0.53032105982314 
H16   H     0.20416060990494 0.89224440014605 0.19945851970119 
