data_stdin
_audit_creation_method 'critic2'
_audit_creation_date 2023-8-11
_chemical_formula_sum 'C10 H8'
_cell_formula_units_Z 8
_cell_length_a        14.3782889109
_cell_length_b         6.8006397437
_cell_length_c        16.3099533233
_cell_angle_alpha        90.0007
_cell_angle_beta        69.3680
_cell_angle_gamma        90.0015
_cell_volume          1492.526291
_space_group_crystal_system monoclinic
_space_group_IT_number 15
_space_group_name_H-M_alt 'C2/c'
_space_group_name_Hall '-C 2yc'
loop_
_symmetry_equiv_pos_site_id
_symmetry_equiv_pos_as_xyz
 1 'x,y,z'
 2 '-1/2-x,-1/2-y,-z'
 3 '-1/2-x,-1/2+y,-1/2-z'
 4 '-1/2+x,-1/2-y,-1/2+z'
 5 '-1/2+x,-1/2+y,z'
 6 '-x,-y,-z'
 7 '-x,y,-1/2-z'
 8 'x,-y,-1/2+z'
loop_
_atom_site_label
_atom_site_type_symbol
_atom_site_fract_x
_atom_site_fract_y
_atom_site_fract_z
C1    C     0.32871048017887 0.14564059030923 0.57833601004085 
C2    C     0.25606640988394 0.22114765056386 0.65155439967765 
C3    C     0.23172810005314 0.42339427002744 0.65566115993617 
C4    C     0.28087885972898 0.54666752071650 0.58688625029715 
C5    C     0.35603042974358 0.47342023989529 0.51073528017147 
C6    C     0.38021991996341 0.26809458062025 0.50616577001826 
C7    C     0.45505695985481 0.19476553946508 0.42980897015194 
C8    C     0.50479402981402 0.31843331005097 0.36145629013561 
C9    C     0.48196075017039 0.52138848045526 0.36648279998715 
C10   C     0.40887315980019 0.59668826070354 0.43934707025887 
H1    H     0.34777215006567 0.99004555025391 0.57502281030007 
H2    H     0.21691278020737 0.12476241979478 0.70612684995957 
H3    H     0.17380540033272 0.48211847066283 0.71339689002905 
H4    H     0.26218675985968 0.70246315959798 0.59028285026176 
H5    H     0.47321901018963 0.03870189015089 0.42618694972971 
H6    H     0.56199885028391 0.26063669971501 0.30315993967995 
H7    H     0.52350460983461 0.61812359981726 0.31291592023903 
H8    H     0.39082851976258 0.75276132965465 0.44327012008178 
