data_stdin
_audit_creation_method 'critic2'
_audit_creation_date 2023-8-11
_chemical_formula_sum 'C10 H8'
_cell_formula_units_Z 4
_cell_length_a         5.8737607021
_cell_length_b         6.9440011032
_cell_length_c        18.3103690637
_cell_angle_alpha        90.0012
_cell_angle_beta        76.4918
_cell_angle_gamma        90.0008
_cell_volume           726.172437
_space_group_crystal_system monoclinic
_space_group_IT_number 14
_space_group_name_H-M_alt 'P2_1/c'
_space_group_name_Hall '-P 2ybc'
loop_
_symmetry_equiv_pos_site_id
_symmetry_equiv_pos_as_xyz
 1 'x,y,z'
 2 '-x,-y,-z'
 3 '-x,-1/2+y,-1/2-z'
 4 'x,-1/2-y,-1/2+z'
loop_
_atom_site_label
_atom_site_type_symbol
_atom_site_fract_x
_atom_site_fract_y
_atom_site_fract_z
C1    C     0.29098685873171 0.10097668165721 0.86401726094397 
C2    C     0.19923527784875 0.25339182597362 0.90974033753809 
C3    C     0.95963840795703 0.25497128189274 0.94725056485913 
C4    C     0.81620166950855 0.10401011294235 0.93855555111325 
C5    C     0.90519067590209 0.94432861651210 0.89229577423311 
C6    C     0.14792284164625 0.94296706217823 0.85396418850463 
C7    C     0.23671657053908 0.78388389697488 0.80713347026627 
C8    C     0.09270637719725 0.63313462117749 0.79820804348744 
C9    C     0.85331563369641 0.63436163812841 0.83624595261762 
C10   C     0.76205417857341 0.78613773201591 0.88241707577366 
H1    H     0.47577220803256 0.09922837372171 0.83547872927815 
H2    H     0.31118541396864 0.37366948067345 0.91684019489500 
H3    H     0.88865502794871 0.37618543854814 0.98303395362746 
H4    H     0.63145514420907 0.10557212355821 0.96701401417746 
H5    H     0.42159514466245 0.78297661971083 0.77839570328561 
H6    H     0.16097521782683 0.51136147201621 0.76228857939880 
H7    H     0.74263868115079 0.51380096744369 0.82869668907911 
H8    H     0.57752155067506 0.78737437141282 0.91141353811806 
