data_stdin
_audit_creation_method 'critic2'
_audit_creation_date 2023-8-11
_chemical_formula_sum 'C10 H8'
_cell_formula_units_Z 4
_cell_length_a        15.8277249449
_cell_length_b        12.2795336410
_cell_length_c         3.9156206371
_cell_angle_alpha        89.9996
_cell_angle_beta        72.6008
_cell_angle_gamma        90.0022
_cell_volume           726.207276
_space_group_crystal_system monoclinic
_space_group_IT_number 7
_space_group_name_H-M_alt 'Pc'
_space_group_name_Hall 'P -2yc'
loop_
_symmetry_equiv_pos_site_id
_symmetry_equiv_pos_as_xyz
 1 'x,y,z'
 2 '-1/2+x,-1/2-y,z'
loop_
_atom_site_label
_atom_site_type_symbol
_atom_site_fract_x
_atom_site_fract_y
_atom_site_fract_z
C1    C     0.73497746015097 0.30036718986604 0.08176717975705 
C2    C     0.26513477001547 0.69947213033817 0.41831293881571 
C3    C     0.75060582023861 0.41020998009697 0.10239322931884 
C4    C     0.24956914004414 0.58960256974028 0.39795681124358 
C5    C     0.68745887026207 0.48723020977166 0.06544845979718 
C6    C     0.31277895021289 0.51267172033102 0.43493080110605 
C7    C     0.60996566978830 0.45318514964515 0.00698778880404 
C8    C     0.39026385984323 0.54683078968581 0.49318950923811 
C9    C     0.59172712963834 0.34071168996654 0.98515271130709 
C10   C     0.40842391981133 0.65933791999154 0.51483550986087 
C11   C     0.65571807020215 0.26258170034629 0.02315979879533 
C12   C     0.34437407977219 0.73737120983577 0.47680592050172 
C13   C     0.63754119021986 0.15016474985075 0.00146311973471 
C14   C     0.36245897024830 0.84981964974080 0.49847737043804 
C15   C     0.56008168012364 0.11594683989235 0.94287570994378 
C16   C     0.43989124994762 0.88414970018651 0.55702268044707 
C17   C     0.49707818014219 0.19293490981243 0.90429822018150 
C18   C     0.50298098997243 0.80725415009249 0.59541918951845 
C19   C     0.51257486994586 0.30283243007215 0.92582907982143 
C20   C     0.48756838014011 0.69733319018822 0.57396810977477 
H1    H     0.78328040978249 0.24088782988763 0.11278911089419 
H2    H     0.21679663979569 0.75888985959784 0.38723894076577 
H3    H     0.81129341991732 0.43806793985571 0.15092709029177 
H4    H     0.18886806030681 0.56162453018895 0.34978573894310 
H5    H     0.70058696029758 0.57386531026102 0.08150538930217 
H6    H     0.29968133011187 0.42602408027086 0.41896786005622 
H7    H     0.56145164004887 0.51244580017550 0.97749312978483 
H8    H     0.43884081007441 0.48765721028924 0.52266274955336 
H9    H     0.68619285967896 0.09101017993899 0.03011118061263 
H10   H     0.31374018989318 0.90889144962222 0.46990145966460 
H11   H     0.54718757999428 0.02926354008261 0.92706418100738 
H12   H     0.45270848982657 0.97085554008034 0.57282424018661 
H13   H     0.43675680002035 0.16539830999408 0.85192245001825 
H14   H     0.56328373004694 0.83489266035862 0.64775358945014 
H15   H     0.46420431973264 0.36232500960202 0.89593542061578 
H16   H     0.53599723027536 0.63792085030633 0.60387148990061 
