data_stdin
_audit_creation_method 'critic2'
_audit_creation_date 2023-8-11
_chemical_formula_sum 'C10 H8'
_cell_formula_units_Z 8
_cell_length_a        19.6601986860
_cell_length_b         7.8099767610
_cell_length_c        10.4471352748
_cell_angle_alpha        90.0010
_cell_angle_beta        75.1876
_cell_angle_gamma        90.0006
_cell_volume          1550.804582
_space_group_crystal_system monoclinic
_space_group_IT_number 15
_space_group_name_H-M_alt 'C2/c'
_space_group_name_Hall '-C 2yc'
loop_
_symmetry_equiv_pos_site_id
_symmetry_equiv_pos_as_xyz
 1 'x,y,z'
 2 '-x,-y,-z'
 3 '-x,y,-1/2-z'
 4 'x,-y,-1/2+z'
 5 '-1/2+x,-1/2+y,z'
 6 '-1/2-x,-1/2-y,-z'
 7 '-1/2-x,-1/2+y,-1/2-z'
 8 '-1/2+x,-1/2-y,-1/2+z'
loop_
_atom_site_label
_atom_site_type_symbol
_atom_site_fract_x
_atom_site_fract_y
_atom_site_fract_z
C1    C     0.37257774987863 0.00578959971592 0.25299855007608 
C2    C     0.33141591012863 0.02605294946626 0.16511154044294 
C3    C     0.30486023009464 0.88105317054456 0.11247704033299 
C4    C     0.31949807993809 0.71833560051960 0.14929085970077 
C5    C     0.36131908995596 0.69316355064012 0.24018684964551 
C6    C     0.38864611010400 0.84010089036124 0.29292341971182 
C7    C     0.43066200989903 0.81478170023063 0.38337610033758 
C8    C     0.44433807007096 0.65224004993313 0.42166644027292 
C9    C     0.41731659993997 0.50741971997282 0.36986604027960 
C10   C     0.37688945020777 0.52738667015824 0.28071085000283 
H1    H     0.39318659016407 0.11703449992660 0.29375340001085 
H2    H     0.31914768012566 0.15341727993332 0.13523771980729 
H3    H     0.27273980006546 0.89933279008030 0.04278079961993 
H4    H     0.29901338009669 0.60617034047725 0.10963368045862 
H5    H     0.45168930030273 0.92629644959092 0.42286636955614 
H6    H     0.47608323012424 0.63500259987792 0.49208896971999 
H7    H     0.42835474981421 0.37973068974021 0.40136157959965 
H8    H     0.35590436976809 0.41644668014066 0.24040070045722 
