data_stdin
_audit_creation_method 'critic2'
_audit_creation_date 2023-8-11
_chemical_formula_sum 'C10 H8'
_cell_formula_units_Z 4
_cell_length_a         7.9999947471
_cell_length_b         5.7612086407
_cell_length_c        19.0238912324
_cell_angle_alpha        90.0007
_cell_angle_beta        58.3281
_cell_angle_gamma        90.0003
_cell_volume           746.220663
_space_group_crystal_system monoclinic
_space_group_IT_number 14
_space_group_name_H-M_alt 'P2_1/c'
_space_group_name_Hall '-P 2ybc'
loop_
_symmetry_equiv_pos_site_id
_symmetry_equiv_pos_as_xyz
 1 'x,y,z'
 2 '-x,-y,-z'
 3 '-x,-1/2+y,-1/2-z'
 4 'x,-1/2-y,-1/2+z'
loop_
_atom_site_label
_atom_site_type_symbol
_atom_site_fract_x
_atom_site_fract_y
_atom_site_fract_z
C1    C     0.85826492997400 0.13884226987241 0.42884314002316 
C2    C     0.99903439027398 0.28551295014423 0.42503637007767 
C3    C     0.04406919023161 0.49699594939302 0.38075630977117 
C4    C     0.94695750035212 0.55923800063286 0.34144642981400 
C5    C     0.79950789040096 0.41358527057528 0.34506286997559 
C6    C     0.75492503049978 0.19820361948231 0.38934150993864 
C7    C     0.60864631977731 0.05149690057641 0.39241765014919 
C8    C     0.50875680995616 0.11616297012831 0.35454252984178 
C9    C     0.55229027972051 0.32874538056432 0.31097289004903 
C10   C     0.69550780040372 0.47376275931841 0.30585623003238 
H1    H     0.82352238960888 0.97484999000955 0.46215243990496 
H2    H     0.07675134014951 0.24029110995266 0.45597617998830 
H3    H     0.15649691977257 0.61056797081677 0.37774305025979 
H4    H     0.98221450999981 0.72143600050034 0.30720936006141 
H5    H     0.57629765999116 0.88681059939231 0.42519855984881 
H6    H     0.39546896980372 0.00303305971415 0.35806415983255 
H7    H     0.47173569943157 0.37711154026531 0.28153696028323 
H8    H     0.73162705993032 0.63654066936294 0.27166366016674 
