data_stdin
_audit_creation_method 'critic2'
_audit_creation_date 2023-8-11
_chemical_formula_sum 'C10 H8'
_cell_formula_units_Z 4
_cell_length_a         8.0024192135
_cell_length_b         5.7562649444
_cell_length_c        19.0211962114
_cell_angle_alpha        89.9975
_cell_angle_beta        58.3914
_cell_angle_gamma        89.9985
_cell_volume           746.208282
_space_group_crystal_system monoclinic
_space_group_IT_number 14
_space_group_name_H-M_alt 'P2_1/c'
_space_group_name_Hall '-P 2ybc'
loop_
_symmetry_equiv_pos_site_id
_symmetry_equiv_pos_as_xyz
 1 'x,y,z'
 2 '-x,-y,-z'
 3 '-x,-1/2+y,-1/2-z'
 4 'x,-1/2-y,-1/2+z'
loop_
_atom_site_label
_atom_site_type_symbol
_atom_site_fract_x
_atom_site_fract_y
_atom_site_fract_z
C1    C     0.60832112003250 0.94843276935556 0.39243801993887 
C2    C     0.50856591038610 0.88342604962392 0.35451446004979 
C3    C     0.55237433975750 0.67075602963667 0.31089862991960 
C4    C     0.69575614056109 0.52596495957560 0.30576429986289 
C5    C     0.79962241945438 0.58646027940977 0.34502252994296 
C6    C     0.75473824076561 0.80196162945905 0.38937066968963 
C7    C     0.85778257023005 0.86152868948310 0.42899899978017 
C8    C     0.99861508980960 0.71500155042583 0.42523372012305 
C9    C     0.04397188996962 0.50348384058221 0.38088680982978 
C10   C     0.94711611063532 0.44100484969183 0.34145971968701 
H1    H     0.57572172011710 0.11315974050430 0.42528170986545 
H2    H     0.39516601004836 0.99635220080431 0.35804085005159 
H3    H     0.47185653013997 0.62205616937949 0.28146357974942 
H4    H     0.73198100005253 0.36302487998520 0.27159307983110 
H5    H     0.82277659995148 0.02555962967137 0.46236750982594 
H6    H     0.07598910948193 0.76032535048939 0.45632625993323 
H7    H     0.15651145037187 0.39009505997176 0.37786777973380 
H8    H     0.98253083076068 0.27867629021208 0.30721946974615 
