data_stdin
_audit_creation_method 'critic2'
_audit_creation_date 2023-8-11
_chemical_formula_sum 'C10 H8'
_cell_formula_units_Z 8
_cell_length_a        12.8505286161
_cell_length_b         7.1272483705
_cell_length_c        16.7191896320
_cell_angle_alpha        90.0005
_cell_angle_beta       104.5695
_cell_angle_gamma        89.9994
_cell_volume          1482.050583
_space_group_crystal_system monoclinic
_space_group_IT_number 15
_space_group_name_H-M_alt 'C2/c'
_space_group_name_Hall '-C 2yc'
loop_
_symmetry_equiv_pos_site_id
_symmetry_equiv_pos_as_xyz
 1 'x,y,z'
 2 '-1/2-x,-1/2-y,-z'
 3 '-1/2-x,-1/2+y,-1/2-z'
 4 '-1/2+x,-1/2-y,-1/2+z'
 5 '-1/2+x,-1/2+y,z'
 6 '-x,-y,-z'
 7 '-x,y,-1/2-z'
 8 'x,-y,-1/2+z'
loop_
_atom_site_label
_atom_site_type_symbol
_atom_site_fract_x
_atom_site_fract_y
_atom_site_fract_z
C1    C     0.24965419002962 0.49990289009315 0.54520412970750 
C2    C     0.35567438013131 0.51620673002047 0.54274519002578 
C3    C     0.42417314969705 0.64701659040222 0.59418300969933 
C4    C     0.38501908979200 0.76148143032774 0.64632884991891 
C5    C     0.27611285007569 0.74891775014211 0.65012084982264 
C6    C     0.20719372954281 0.61383289030846 0.59904373977085 
C7    C     0.09876823003282 0.59977881038863 0.60391319029917 
C8    C     0.05972069009306 0.71466685969136 0.65612650022022 
C9    C     0.12766941024933 0.84872881041004 0.70608326000026 
C10   C     0.23358916014583 0.86508937037939 0.70314328021454 
H1    H     0.19655672016547 0.40090365977720 0.50480502003843 
H2    H     0.38709872030981 0.42941397980108 0.50062167022439 
H3    H     0.50822623996847 0.65630124984469 0.59274676988422 
H4    H     0.43726354999912 0.86353821991687 0.68544922991613 
H5    H     0.04670359035368 0.49546604066731 0.56610085997034 
H6    H     0.97609513958213 0.70360219067516 0.65874532977687 
H7    H     0.09653325025542 0.93936820007051 0.74711237996266 
H8    H     0.28609186998234 0.96757515957158 0.74171192982073 
