data_stdin
_audit_creation_method 'critic2'
_audit_creation_date 2023-8-11
_chemical_formula_sum 'C10 H8'
_cell_formula_units_Z 4
_cell_length_a         8.5909782028
_cell_length_b         5.8937034903
_cell_length_c        15.7291751477
_cell_angle_alpha        90.0005
_cell_angle_beta        66.2352
_cell_angle_gamma        90.0004
_cell_volume           728.880662
_space_group_crystal_system monoclinic
_space_group_IT_number 14
_space_group_name_H-M_alt 'P2_1/c'
_space_group_name_Hall '-P 2ybc'
loop_
_symmetry_equiv_pos_site_id
_symmetry_equiv_pos_as_xyz
 1 'x,y,z'
 2 '-x,-y,-z'
 3 '-x,-1/2+y,-1/2-z'
 4 'x,-1/2-y,-1/2+z'
loop_
_atom_site_label
_atom_site_type_symbol
_atom_site_fract_x
_atom_site_fract_y
_atom_site_fract_z
C1    C     0.13361938036722 0.76143652938183 0.40397655029019 
C2    C     0.30187285984807 0.69792232031086 0.37301407969825 
C3    C     0.35631329018818 0.48603614991171 0.32844864008513 
C4    C     0.24130025979679 0.34150830985596 0.31577209991304 
C5    C     0.06700335019498 0.40167957067497 0.34714840991086 
C6    C     0.01184761024713 0.61660284011718 0.39212188969123 
C7    C     0.83819712017276 0.67793326933634 0.42182319009260 
C8    C     0.72435570021329 0.53434191057826 0.40735856010679 
C9    C     0.77875242988612 0.32210065075296 0.36322709000491 
C10   C     0.94665036013637 0.25704714029080 0.33391316968187 
H1    H     0.09245960025005 0.92544429081215 0.43728385001865 
H2    H     0.39360884036109 0.81156179018700 0.38255132991149 
H3    H     0.48955454015700 0.43703452075333 0.30370834028563 
H4    H     0.28207902047731 0.17870440054530 0.28119439966355 
H5    H     0.79619650018143 0.84133069991312 0.45572566012590 
H6    H     0.59162962982769 0.58417505031416 0.43012117006677 
H7    H     0.68859541004185 0.20994911012832 0.35135572979924 
H8    H     0.98914498029931 0.09449614018737 0.29949118995893 
