data_stdin
_audit_creation_method 'critic2'
_audit_creation_date 2023-8-11
_chemical_formula_sum 'C10 H8'
_cell_formula_units_Z 4
_cell_length_a         6.0878727097
_cell_length_b        15.6546686300
_cell_length_c         8.2713939368
_cell_angle_alpha        90.0006
_cell_angle_beta       112.4886
_cell_angle_gamma        89.9979
_cell_volume           728.348758
_space_group_crystal_system monoclinic
_space_group_IT_number 14
_space_group_name_H-M_alt 'P2_1/c'
_space_group_name_Hall '-P 2ybc'
loop_
_symmetry_equiv_pos_site_id
_symmetry_equiv_pos_as_xyz
 1 'x,y,z'
 2 '-x,-y,-z'
 3 '-x,-1/2+y,-1/2-z'
 4 'x,-1/2-y,-1/2+z'
loop_
_atom_site_label
_atom_site_type_symbol
_atom_site_fract_x
_atom_site_fract_y
_atom_site_fract_z
C1    C     0.43034873013311 0.05304273029528 0.70761079959153 
C2    C     0.65544000066212 0.05040737983227 0.83651928999760 
C3    C     0.84490874005004 0.09446692000114 0.81423102000271 
C4    C     0.80603879964375 0.14064924990841 0.66385419049603 
C5    C     0.57646204943330 0.14448890978617 0.52810273989268 
C6    C     0.38446746041995 0.09961183981110 0.55075414012996 
C7    C     0.15430643028898 0.10438944029833 0.41647655015498 
C8    C     0.11467151975787 0.15095104991590 0.26641051970032 
C9    C     0.30455143015128 0.19416718975793 0.24286938061199 
C10   C     0.53040522983953 0.19133639991153 0.37145251054222 
H1    H     0.28394817057720 0.01934242983870 0.72441389955745 
H2    H     0.68814688988287 0.01411490997199 0.95579972048720 
H3    H     0.02198224977431 0.09236178001456 0.91699505960454 
H4    H     0.95213750956768 0.17479456988310 0.64786580957490 
H5    H     0.00809337045770 0.07146040015945 0.43488392980645 
H6    H     0.93626033975191 0.15455392007588 0.16548875948619 
H7    H     0.27254693003497 0.23013246973669 0.12321274042535 
H8    H     0.67573612027479 0.22553211991982 0.35397182046704 
