data_stdin
_audit_creation_method 'critic2'
_audit_creation_date 2023-8-11
_chemical_formula_sum 'C10 H8'
_cell_formula_units_Z 8
_cell_length_a        15.2485277555
_cell_length_b         3.9436781374
_cell_length_c        25.2063401386
_cell_angle_alpha        89.9951
_cell_angle_beta        77.1158
_cell_angle_gamma        90.0282
_cell_volume          1477.626667
_space_group_crystal_system monoclinic
_space_group_IT_number 15
_space_group_name_H-M_alt 'C2/c'
_space_group_name_Hall '-C 2yc'
loop_
_symmetry_equiv_pos_site_id
_symmetry_equiv_pos_as_xyz
 1 'x,y,z'
 2 '-x,-y,-z'
 3 '-1/2-x,-1/2+y,-1/2-z'
 4 '-1/2+x,-1/2-y,-1/2+z'
 5 '-1/2+x,-1/2+y,z'
 6 '-1/2-x,-1/2-y,-z'
 7 '-x,y,-1/2-z'
 8 'x,-y,-1/2+z'
loop_
_atom_site_label
_atom_site_type_symbol
_atom_site_fract_x
_atom_site_fract_y
_atom_site_fract_z
C1    C     0.25208984350802 0.66130414696045 0.89437608796774 
C2    C     0.23795648218745 0.73016358033114 0.84331080763670 
C3    C     0.30236109163214 0.63048468258950 0.79638319415832 
C4    C     0.37908108339116 0.46057892463576 0.80136077443708 
C5    C     0.39600906682316 0.38780045186180 0.85325367569280 
C6    C     0.33116267922624 0.49215378121921 0.90086695662660 
C7    C     0.34869633686490 0.42511782801996 0.95280522139298 
C8    C     0.42656131308622 0.26307630089685 0.95778004063841 
C9    C     0.49006961734772 0.15703462749421 0.91085270763215 
C10   C     0.47478626792727 0.21676863282840 0.85978184089237 
H1    H     0.20290262499669 0.74047690348702 0.93057043295679 
H2    H     0.17777615380184 0.86652146243350 0.83911568226455 
H3    H     0.29118275928843 0.69008247378207 0.75624165718241 
H4    H     0.42796265080919 0.38071794043738 0.76514596717353 
H5    H     0.29928982174333 0.50389396357687 0.98887503055097 
H6    H     0.43928497738283 0.21564824238264 0.99795777536928 
H7    H     0.55064953024129 0.02334052613649 0.91497855022644 
H8    H     0.52299183283670 0.12944679029996 0.82368953876417 
