data_stdin
_audit_creation_method 'critic2'
_audit_creation_date 2023-8-11
_chemical_formula_sum 'C10 H8'
_cell_formula_units_Z 8
_cell_length_a         5.5796140534
_cell_length_b         9.8029135434
_cell_length_c        29.1957093293
_cell_angle_alpha        90.0009
_cell_angle_beta       100.6159
_cell_angle_gamma        89.9968
_cell_volume          1569.570259
_space_group_crystal_system monoclinic
_space_group_IT_number 15
_space_group_name_H-M_alt 'C2/c'
_space_group_name_Hall '-C 2yc'
loop_
_symmetry_equiv_pos_site_id
_symmetry_equiv_pos_as_xyz
 1 'x,y,z'
 2 '-x,-y,-z'
 3 '-x,y,-1/2-z'
 4 'x,-y,-1/2+z'
 5 '-1/2+x,-1/2+y,z'
 6 '-1/2-x,-1/2-y,-z'
 7 '-1/2-x,-1/2+y,-1/2-z'
 8 '-1/2+x,-1/2-y,-1/2+z'
loop_
_atom_site_label
_atom_site_type_symbol
_atom_site_fract_x
_atom_site_fract_y
_atom_site_fract_z
C1    C     0.34149262324667 0.03278342394416 0.84221271462653 
C2    C     0.29501408959287 0.07544080227388 0.79642021622308 
C3    C     0.28392144586174 0.21627424633371 0.78548058201776 
C4    C     0.31943484047475 0.31241164976154 0.82057095511247 
C5    C     0.36771064297715 0.27207640375252 0.86811021051282 
C6    C     0.37895782284273 0.12924158981550 0.87914219430255 
C7    C     0.42706817055159 0.08881673858242 0.92666258439826 
C8    C     0.46254205197689 0.18484484430734 0.96177419626607 
C9    C     0.45144494428580 0.32567568561891 0.95085443326789 
C10   C     0.40511000132765 0.36846555942582 0.90506729940027 
H1    H     0.35012290293606 0.92442705283659 0.85066729100968 
H2    H     0.26678474054307 0.00069279443666 0.76835026310602 
H3    H     0.24711436390678 0.24769758028500 0.74909665784096 
H4    H     0.31120681841180 0.42101624993865 0.81249876263856 
H5    H     0.43519221019915 0.98022666734962 0.93466679241876 
H6    H     0.49907871042445 0.15333970751784 0.99814193159864 
H7    H     0.47973655291330 0.40015712483089 0.97900600723699 
H8    H     0.39658238132026 0.47685888940634 0.89667971597618 
