data_stdin
_audit_creation_method 'critic2'
_audit_creation_date 2023-8-11
_chemical_formula_sum 'C10 H8'
_cell_formula_units_Z 4
_cell_length_a         5.8815276896
_cell_length_b        15.1619589609
_cell_length_c         7.9720480586
_cell_angle_alpha        90.0060
_cell_angle_beta        89.9983
_cell_angle_gamma        90.0066
_cell_volume           710.911215
_space_group_crystal_system triclinic
_space_group_IT_number 1
_space_group_name_H-M_alt 'P1'
_space_group_name_Hall 'P 1'
loop_
_symmetry_equiv_pos_site_id
_symmetry_equiv_pos_as_xyz
 1 'x,y,z'
loop_
_atom_site_label
_atom_site_type_symbol
_atom_site_fract_x
_atom_site_fract_y
_atom_site_fract_z
C1    C     0.41369255067780 0.34787039029395 0.43331447019611 
C2    C     0.91401043990852 0.15204902994689 0.56666672043229 
C3    C     0.58607844970775 0.84781675030805 0.06668538989964 
C4    C     0.08627557984997 0.65213924971666 0.93342599969878 
C5    C     0.35228264000152 0.38984130975432 0.28667001057956 
C6    C     0.85272110923216 0.11000231973784 0.71326818991281 
C7    C     0.64741523010269 0.88982002022822 0.21333138019742 
C8    C     0.14788135993873 0.61028493004317 0.78669203047998 
C9    C     0.14165822026683 0.43452665979143 0.27452576998882 
C10   C     0.64226101053015 0.06517352973424 0.72536659043273 
C11   C     0.85786620930413 0.93466373982676 0.22542897057295 
C12   C     0.35861874081557 0.56568470027307 0.77449853963013 
C13   C     0.99498417951657 0.43608731019160 0.40944183018327 
C14   C     0.49558846081537 0.06358195013294 0.59047039006951 
C15   C     0.00449110075413 0.93630728972627 0.09049440950469 
C16   C     0.50517075059681 0.56406813005113 0.90947064002703 
C17   C     0.05383120920987 0.39431336979508 0.56274291019800 
C18   C     0.55425517985415 0.10546450016973 0.43723486947673 
C19   C     0.94575788988389 0.89446859981238 0.93721460050111 
C20   C     0.44613465039399 0.60572606020381 0.06285978059273 
C21   C     0.26829959077257 0.34960085002275 0.57542109058336 
C22   C     0.76862780966090 0.15027371986475 0.42456382040513 
C23   C     0.73139717035947 0.84964773967584 0.92454524965322 
C24   C     0.23159404966621 0.65038810028387 0.07556276991066 
C25   C     0.32866084959322 0.30921813985097 0.73004117041214 
C26   C     0.82892573921025 0.19066534973068 0.26993226956865 
C27   C     0.67104311926144 0.80929715028082 0.76987908032053 
C28   C     0.17115198067229 0.69074881979787 0.23020082031626 
C29   C     0.18496466927271 0.31391951028295 0.86656554017254 
C30   C     0.68523811079252 0.18590479968360 0.13341462053782 
C31   C     0.81465053940996 0.81411875976078 0.63331862978561 
C32   C     0.31483334944480 0.68607153968460 0.36672699999479 
C33   C     0.97320289054574 0.35776998990813 0.85368623052217 
C34   C     0.47350874010589 0.14201347030445 0.14632332963332 
C35   C     0.02634766018901 0.85803850030176 0.64621291954827 
C36   C     0.52662262056745 0.64223856030257 0.35384640056475 
C37   C     0.90848854918388 0.39638106983443 0.70468055009202 
C38   C     0.40886771033828 0.10338036991334 0.29533868946240 
C39   C     0.09105567944131 0.89662092997805 0.79526736054327 
C40   C     0.59140721944745 0.60364427007655 0.20482709031666 
H1    H     0.57509059999690 0.31306200978112 0.44185340941456 
H2    H     0.07528112957714 0.18696758020150 0.55817768959312 
H3    H     0.42480639072684 0.81289912004631 0.05817874052939 
H4    H     0.92479597045803 0.68688683975594 0.94200503988743 
H5    H     0.46624178976617 0.38886794993133 0.17901920946163 
H6    H     0.96661624029431 0.11106759996944 0.82094551990756 
H7    H     0.53356057025739 0.88872552029544 0.32103538993436 
H8    H     0.03397883072237 0.61128119988008 0.67901627966034 
H9    H     0.09777312077015 0.46787791976047 0.15799535950893 
H10   H     0.59856415946649 0.03170530975694 0.84182254016858 
H11   H     0.90161522946428 0.96809364004471 0.34192204058201 
H12   H     0.40272919051970 0.53247800007255 0.65785672971125 
H13   H     0.83148246047532 0.46957819989947 0.40092146978064 
H14   H     0.33216448003177 0.02999694995413 0.59896473997295 
H15   H     0.16789271936798 0.96989704015151 0.09898388986406 
H16   H     0.66875237969230 0.53063543997525 0.90092125018741 
H17   H     0.49081851068386 0.27465595008116 0.73849703041842 
H18   H     0.99104113962597 0.22527538975335 0.26146944981654 
H19   H     0.50894780067225 0.77467124977326 0.76142157056132 
H20   H     0.00895800080972 0.72528683989813 0.23865825011290 
H21   H     0.23395610973808 0.28403702015877 0.98534447007932 
H22   H     0.73423679043393 0.21574351981582 0.01459319010432 
H23   H     0.76560890986944 0.78430221991197 0.51447881052236 
H24   H     0.26583051025758 0.71598714018732 0.48548796993736 
H25   H     0.86143136066081 0.36088023002420 0.96249939040580 
H26   H     0.36172225954628 0.13887434001077 0.03752591951285 
H27   H     0.13804316948724 0.86124144009302 0.53736757988775 
H28   H     0.63835803982136 0.63912820989606 0.46267278972267 
H29   H     0.74457472072771 0.42927762971180 0.69373613032809 
H30   H     0.24500514084897 0.07043316979746 0.30633148955724 
H31   H     0.25490419059792 0.92958171974059 0.80625519040746 
H32   H     0.75535507023480 0.57077210996925 0.19388332045105 
