data_stdin
_audit_creation_method 'critic2'
_audit_creation_date 2023-8-11
_chemical_formula_sum 'C10 H8'
_cell_formula_units_Z 16
_cell_length_a        22.1944845619
_cell_length_b        22.1954935917
_cell_length_c         5.8565459240
_cell_angle_alpha        90.0000
_cell_angle_beta        90.0002
_cell_angle_gamma        90.0004
_cell_volume          2885.037245
_space_group_crystal_system tetragonal
_space_group_IT_number 88
_space_group_name_H-M_alt 'I4_1/a'
_space_group_name_Hall 'I 4bw -1bw'
loop_
_symmetry_equiv_pos_site_id
_symmetry_equiv_pos_as_xyz
 1 'x,y,z'
 2 '-3/4-y,-1/4+x,-1/4+z'
 3 '-x,-1/2-y,z'
 4 '-1/4+y,-1/4-x,-1/4+z'
 5 '-x,-y,-z'
 6 '-1/4+y,-3/4-x,-3/4-z'
 7 'x,-1/2+y,-z'
 8 '-1/4-y,-1/4+x,-1/4-z'
 9 '-1/2+x,-1/2+y,-1/2+z'
 10 '-1/4-y,-3/4+x,-3/4+z'
 11 '-1/2-x,-y,-1/2+z'
 12 '-3/4+y,-3/4-x,-3/4+z'
 13 '-1/2-x,-1/2-y,-1/2-z'
 14 '-3/4+y,-1/4-x,-1/4-z'
 15 '-1/2+x,y,-1/2-z'
 16 '-3/4-y,-3/4+x,-3/4-z'
loop_
_atom_site_label
_atom_site_type_symbol
_atom_site_fract_x
_atom_site_fract_y
_atom_site_fract_z
C1    C     0.10687445006016 0.93091515015019 0.78681156997638 
C2    C     0.14672054984885 0.97733937003641 0.74511579000303 
C3    C     0.14303135006126 0.01107211986665 0.54055177074286 
C4    C     0.09980564009159 0.99744481990167 0.37943549079246 
C5    C     0.05779982004712 0.95028390015392 0.41777298069711 
C6    C     0.06097457011511 0.91661993002991 0.62678914950084 
C7    C     0.01801152982547 0.87027080020501 0.66660833002752 
C8    C     0.97410617021388 0.85743677981953 0.50716308992367 
C9    C     0.97107997994845 0.89065482007576 0.30106778007989 
C10   C     0.01198352019718 0.93589412994138 0.25780569015556 
H1    H     0.10961574003564 0.90512020987003 0.94488654916748 
H2    H     0.18103481017877 0.98871458017902 0.87083314974484 
H3    H     0.17419199017717 0.04831062989118 0.51351098044705 
H4    H     0.09657338988239 0.02343522990727 0.22199276003794 
H5    H     0.02038368020239 0.84506401003366 0.82616815935873 
H6    H     0.94159759017925 0.82154313013052 0.53731360066159 
H7    H     0.93569180982587 0.88066105004485 0.17837269031270 
H8    H     0.00939409984582 0.96157960018460 0.09984926971529 
