data_stdin
_audit_creation_method 'critic2'
_audit_creation_date 2023-8-11
_chemical_formula_sum 'C10 H8'
_cell_formula_units_Z 2
_cell_length_a         9.0692978096
_cell_length_b         5.7987577800
_cell_length_c         7.9318819183
_cell_angle_alpha        90.0000
_cell_angle_beta        56.8909
_cell_angle_gamma        90.0000
_cell_volume           349.412403
_space_group_crystal_system monoclinic
_space_group_IT_number 14
_space_group_name_H-M_alt 'P2_1/c'
_space_group_name_Hall '-P 2ybc'
loop_
_symmetry_equiv_pos_site_id
_symmetry_equiv_pos_as_xyz
 1 'x,y,z'
 2 '-x,-1/2-y,-1/2-z'
 3 '-x,-1/2+y,-z'
 4 'x,-y,-1/2+z'
loop_
_atom_site_label
_atom_site_type_symbol
_atom_site_fract_x
_atom_site_fract_y
_atom_site_fract_z
C1    C     0.38824573006880 0.00552196983282 0.42311434976028 
C2    C     0.21402296071571 0.94111205926229 0.51915932944806 
C3    C     0.16720834993396 0.73054644070067 0.46981188980360 
C4    C     0.29563626044060 0.58667831930386 0.32575256995519 
C5    C     0.47640112001687 0.64705742983949 0.22541712039244 
H1    H     0.42394330922187 0.16788562042633 0.46043162066235 
H2    H     0.11191363015136 0.05313124060529 0.63377755034032 
H3    H     0.02905161963655 0.68221930003993 0.54647390993985 
H4    H     0.26087857027368 0.42485060961194 0.28598814942295 
