data_stdin
_audit_creation_method 'critic2'
_audit_creation_date 2023-8-11
_chemical_formula_sum 'C10 H8'
_cell_formula_units_Z 6
_cell_length_a        13.4445419718
_cell_length_b        13.4434404175
_cell_length_c         7.3477225721
_cell_angle_alpha        90.0363
_cell_angle_beta        89.9820
_cell_angle_gamma       120.0025
_cell_volume          1150.082403
_space_group_crystal_system monoclinic
_space_group_IT_number 5
_space_group_name_H-M_alt 'C2'
_space_group_name_Hall 'C 2y'
loop_
_symmetry_equiv_pos_site_id
_symmetry_equiv_pos_as_xyz
 1 'x,y,z'
 2 'x-y,-y,-2/3-z'
loop_
_atom_site_label
_atom_site_type_symbol
_atom_site_fract_x
_atom_site_fract_y
_atom_site_fract_z
C1    C     0.26257349005822 0.16333464961553 0.77570601989824 
C2    C     0.83663890004356 0.09925537970672 0.44229027022640 
C3    C     0.90073422022049 0.73744611013390 0.10884526020532 
C4    C     0.15853085017583 0.15807560029879 0.75122288945372 
C5    C     0.84190789992197 0.00045224983408 0.41787685015996 
C6    C     0.99951202007288 0.84150852971632 0.08436620971417 
C7    C     0.15335703982079 0.25955328992249 0.72394642995642 
C8    C     0.74043744988199 0.89375274981126 0.39069047036187 
C9    C     0.10620107966891 0.84672487989428 0.05724466062609 
C10   C     0.25264048007686 0.36487673003319 0.72128988976972 
C11   C     0.63510868962371 0.88768314991215 0.38806747041024 
C12   C     0.11228574015821 0.74746374963419 0.05475280999788 
C13   C     0.36128568992272 0.37334329037070 0.74543791016344 
C14   C     0.62663067968941 0.98787979980633 0.41215341041564 
C15   C     0.01211453002034 0.63879853021903 0.07890470957244 
C16   C     0.36642802021205 0.27043744993706 0.77363136045135 
C17   C     0.72953036986607 0.09597807040204 0.44024239945408 
C18   C     0.90402661955179 0.63361273964944 0.10692435023112 
C19   C     0.47515375964772 0.27931801960968 0.79791609950476 
C20   C     0.72063761014973 0.19584076991872 0.46445849944267 
C21   C     0.80418731968522 0.52486676980994 0.13119371056192 
C22   C     0.57464188980151 0.38486566992824 0.79590654996183 
C23   C     0.61508412989340 0.18975148004426 0.46248635005605 
C24   C     0.81028888008554 0.42540004982344 0.12933602017670 
C25   C     0.56948912973450 0.48632781988520 0.76798293945865 
C26   C     0.51362710979206 0.08308687003140 0.43467335011880 
C27   C     0.91694420992655 0.43059536000203 0.10159587038068 
C28   C     0.46505797958212 0.48033804984666 0.74217775060084 
C29   C     0.51962905013831 0.98462621022951 0.40893355988941 
C30   C     0.01538246982267 0.53504696989262 0.07581171967163 
H1    H     0.26634180991106 0.08504671004355 0.79723683945560 
H2    H     0.91492225018886 0.18134953030181 0.46374728035395 
H3    H     0.81864796002281 0.73364494033470 0.13025390014621 
H4    H     0.07954568033020 0.07542020033719 0.75329225951644 
H5    H     0.92456609025104 0.00414295017466 0.41993469057858 
H6    H     0.99580948005087 0.92047771034385 0.08631964961856 
H7    H     0.07014607967797 0.25347874996462 0.70489125056297 
H8    H     0.74652071010900 0.81660204016431 0.37168662947738 
H9    H     0.18333143017938 0.92995024989737 0.03818462041259 
H10   H     0.24942062010512 0.44345929029375 0.70086651985368 
H11   H     0.55653279051206 0.80584320035392 0.36771615018496 
H12   H     0.19411830005499 0.75071880980220 0.03445149022744 
H13   H     0.47893317021184 0.20094547984303 0.81740112980440 
H14   H     0.79900339996910 0.27803051985863 0.48386255002101 
H15   H     0.72200661986934 0.52105401006343 0.15054751935246 
H16   H     0.65748991004606 0.39042689957273 0.81691524000106 
H17   H     0.60951402023999 0.26705328020486 0.48344722957737 
H18   H     0.73300568996524 0.34253644010556 0.15033055978987 
H19   H     0.64849531010291 0.56925535994882 0.76778525004470 
H20   H     0.43069694968117 0.07914601006427 0.43450271026104 
H21   H     0.92089683000549 0.35160570971617 0.10152175041734 
H22   H     0.46048610963509 0.55790690959485 0.71831456011489 
H23   H     0.44206458042762 0.90244407033364 0.38515117967802 
H24   H     0.09755665985299 0.53965223010835 0.05208950964736 
