data_stdin
_audit_creation_method 'critic2'
_audit_creation_date 2023-8-11
_chemical_formula_sum 'C10 H8'
_cell_formula_units_Z 4
_cell_length_a         8.0053132483
_cell_length_b         5.9857619512
_cell_length_c        15.3964288943
_cell_angle_alpha        89.9720
_cell_angle_beta        96.4964
_cell_angle_gamma        90.0097
_cell_volume           733.027201
_space_group_crystal_system triclinic
_space_group_IT_number 2
_space_group_name_H-M_alt 'P-1'
_space_group_name_Hall '-P 1'
loop_
_symmetry_equiv_pos_site_id
_symmetry_equiv_pos_as_xyz
 1 'x,y,z'
 2 '-x,-y,-z'
loop_
_atom_site_label
_atom_site_type_symbol
_atom_site_fract_x
_atom_site_fract_y
_atom_site_fract_z
C1    C     0.78791240003362 0.63985921066378 0.80965045984549 
C2    C     0.21204084028569 0.13971244070864 0.69038420008943 
C3    C     0.65275366965438 0.49804168011543 0.81272577021940 
C4    C     0.34718391001242 0.99793930020558 0.68731612996516 
C5    C     0.67480914041754 0.28685289058519 0.85385144005749 
C6    C     0.32510443994212 0.78681458931569 0.64621729997268 
C7    C     0.83149314044332 0.22057271026916 0.89125077998663 
C8    C     0.16841341946521 0.72055247928761 0.60883176013715 
C9    C     0.97274387967558 0.36325333916980 0.89039043001003 
C10   C     0.02717467041548 0.86319537027341 0.60968364023894 
C11   C     0.95060477947991 0.57749111921899 0.84872242989107 
C12   C     0.04933723062158 0.07736408002168 0.65132767995599 
C13   C     0.09218021058507 0.71990529972783 0.84769991983963 
C14   C     0.90777677958837 0.21974675973791 0.65233784018796 
C15   C     0.24799577000874 0.65516064980790 0.88705412022246 
C16   C     0.75195988950136 0.15504232040640 0.61297812969537 
C17   C     0.26974482984213 0.44419642038333 0.92831342979149 
C18   C     0.73019223997173 0.94414703034086 0.57174239978730 
C19   C     0.13513660963101 0.30114313952790 0.92945960004730 
C20   C     0.86477793947990 0.80111445994670 0.57061773013391 
H1    H     0.77230944048219 0.80128332984848 0.77688342975387 
H2    H     0.22766093032043 0.30108381926905 0.72313100978317 
H3    H     0.52810898990708 0.54779676940062 0.78348648986461 
H4    H     0.47183458954026 0.04766687968395 0.71655050996624 
H5    H     0.56694134978267 0.17676758063530 0.85585644976579 
H6    H     0.43295939007539 0.67675603062432 0.64422477030714 
H7    H     0.84897205979032 0.05727264001740 0.92209907979115 
H8    H     0.15091977036326 0.55729758016189 0.57800402007658 
H9    H     0.07620776978885 0.88098480958864 0.81496417007321 
H10   H     0.92376009014351 0.38077399952699 0.68505682976066 
H11   H     0.35537867983460 0.76663689043846 0.88602472030515 
H12   H     0.64459417949841 0.26650608937012 0.61398336982875 
H13   H     0.39334984937061 0.39520583080593 0.95922338990250 
H14   H     0.60657932054998 0.89519383970967 0.54083887994061 
H15   H     0.15158741996172 0.13775590994905 0.96034432002527 
H16   H     0.84831158039200 0.63777660978965 0.53975184030838 
