data_stdin
_audit_creation_method 'critic2'
_audit_creation_date 2023-8-11
_chemical_formula_sum 'C10 H8'
_cell_formula_units_Z 8
_cell_length_a        15.6016920722
_cell_length_b         5.9358323705
_cell_length_c        15.3727125288
_cell_angle_alpha        90.0007
_cell_angle_beta        84.6820
_cell_angle_gamma        90.0008
_cell_volume          1417.524062
_space_group_crystal_system monoclinic
_space_group_IT_number 15
_space_group_name_H-M_alt 'C2/c'
_space_group_name_Hall '-C 2yc'
loop_
_symmetry_equiv_pos_site_id
_symmetry_equiv_pos_as_xyz
 1 'x,y,z'
 2 '-x,-y,-z'
 3 '-x,y,-1/2-z'
 4 'x,-y,-1/2+z'
 5 '-1/2+x,-1/2+y,z'
 6 '-1/2-x,-1/2-y,-z'
 7 '-1/2-x,-1/2+y,-1/2-z'
 8 '-1/2+x,-1/2-y,-1/2+z'
loop_
_atom_site_label
_atom_site_type_symbol
_atom_site_fract_x
_atom_site_fract_y
_atom_site_fract_z
C1    C     0.19371344983763 0.48914387924511 0.42759014991536 
C2    C     0.10818920992022 0.54778464072966 0.42904912012066 
C3    C     0.08423072007023 0.75849985993436 0.39559226968351 
C4    C     0.14628841987238 0.90690222081651 0.36092971991604 
C5    C     0.23505375995739 0.85105567057456 0.35838809018915 
C6    C     0.25933963994978 0.63753929014707 0.39245053986890 
C7    C     0.34794106984913 0.58059085028617 0.38850778968837 
C8    C     0.40992392023835 0.72678283077189 0.35197231991212 
C9    C     0.38587570001514 0.93701853007257 0.31835567003551 
C10   C     0.30035178997919 0.99806321956183 0.32166196968417 
H1    H     0.21192133987930 0.32617564955496 0.45261079009631 
H2    H     0.05860998969389 0.43116560973139 0.45558314998689 
H3    H     0.01629205995228 0.80213185979090 0.39707895027962 
H4    H     0.12864725965333 0.06830504062869 0.33385033031054 
H5    H     0.36589178001679 0.41834169956388 0.41458061970930 
H6    H     0.47778037992639 0.68145406065728 0.34871212025813 
H7    H     0.43496913001397 0.05126395039668 0.28914590977705 
H8    H     0.28198191025152 0.15921863998724 0.29524225004673 
