data_stdin
_audit_creation_method 'critic2'
_audit_creation_date 2023-8-11
_chemical_formula_sum 'C10 H8'
_cell_formula_units_Z 8
_cell_length_a        19.4676038753
_cell_length_b         7.5330649642
_cell_length_c        12.0663996845
_cell_angle_alpha        89.9971
_cell_angle_beta        54.4666
_cell_angle_gamma        89.9967
_cell_volume          1440.015071
_space_group_crystal_system monoclinic
_space_group_IT_number 15
_space_group_name_H-M_alt 'C2/c'
_space_group_name_Hall '-C 2yc'
loop_
_symmetry_equiv_pos_site_id
_symmetry_equiv_pos_as_xyz
 1 'x,y,z'
 2 '-x,-y,-z'
 3 '-x,y,-1/2-z'
 4 'x,-y,-1/2+z'
 5 '-1/2+x,-1/2+y,z'
 6 '-1/2-x,-1/2-y,-z'
 7 '-1/2-x,-1/2+y,-1/2-z'
 8 '-1/2+x,-1/2-y,-1/2+z'
loop_
_atom_site_label
_atom_site_type_symbol
_atom_site_fract_x
_atom_site_fract_y
_atom_site_fract_z
C1    C     0.21343302971619 0.52247737950312 0.03312384020316 
C2    C     0.12998110029064 0.48567607012956 0.13420504969830 
C3    C     0.10809260988140 0.38172826057374 0.24809288001057 
C4    C     0.16994786016050 0.31505920029517 0.25900875021897 
C5    C     0.25645758000110 0.35185232939438 0.15720866039386 
C6    C     0.27857090004814 0.45868195008904 0.04229095951398 
C7    C     0.36496097992752 0.49704824998160 0.94111924024963 
C8    C     0.42699069023162 0.43229803939947 0.95222761967466 
C9    C     0.40519423977235 0.32510965040747 0.06471749003116 
C10   C     0.32187848004116 0.28589506935840 0.16485518019514 
H1    H     0.23058625998681 0.59999601983785 0.94434757017209 
H2    H     0.08077543993587 0.53486463005224 0.12525824983708 
H3    H     0.04196658010313 0.35241210994593 0.32638662950292 
H4    H     0.15322606032641 0.23193966000080 0.34535677963241 
H5    H     0.38107398991133 0.57761118990096 0.85402706049349 
H6    H     0.49314017039559 0.46070746996007 0.87342345949733 
H7    H     0.45468410988399 0.27163929040115 0.07140238968709 
H8    H     0.30545754032975 0.20169480952557 0.25029892961110 
