data_stdin
_audit_creation_method 'critic2'
_audit_creation_date 2023-8-11
_chemical_formula_sum 'C10 H8'
_cell_formula_units_Z 4
_cell_length_a         5.5029823128
_cell_length_b         5.5030061043
_cell_length_c        23.5398102303
_cell_angle_alpha        89.9975
_cell_angle_beta        89.9983
_cell_angle_gamma        90.0003
_cell_volume           712.854784
_space_group_crystal_system tetragonal
_space_group_IT_number 76
_space_group_name_H-M_alt 'P4_1'
_space_group_name_Hall 'P 4w'
loop_
_symmetry_equiv_pos_site_id
_symmetry_equiv_pos_as_xyz
 1 'x,y,z'
 2 '-y,x,-3/4+z'
 3 '-x,-y,-1/2+z'
 4 'y,-x,-1/4+z'
loop_
_atom_site_label
_atom_site_type_symbol
_atom_site_fract_x
_atom_site_fract_y
_atom_site_fract_z
C1    C     0.60959709023969 0.92235426968569 0.00150841987559 
C2    C     0.78880914990201 0.92402909927063 0.96057305002536 
C3    C     0.96681381037839 0.10978919974377 0.96005237005193 
C4    C     0.96507482082209 0.28826374005988 0.00119695012646 
C5    C     0.78500165007493 0.29007864995214 0.04439242996013 
C6    C     0.60138449935696 0.10469106975867 0.04408020999390 
C7    C     0.41768875060827 0.10974890975791 0.08636104984698 
C8    C     0.41632995065448 0.28766704949033 0.12760276004287 
C9    C     0.60031388987139 0.46745709954151 0.12872712998217 
C10   C     0.78004991066336 0.46877615025759 0.08788156993209 
H1    H     0.47244623059957 0.77957684959442 0.00213351018085 
H2    H     0.79375759072888 0.78191954938083 0.92843862997675 
H3    H     0.10523443022924 0.11341398954778 0.92700285016549 
H4    H     0.10325881058629 0.42997608992083 0.00113653986137 
H5    H     0.27630099943775 0.97122005023944 0.08524945015011 
H6    H     0.27328186997338 0.29017730917288 0.15952535980286 
H7    H     0.60153632911538 0.60498674063728 0.16198779003676 
H8    H     0.92035591986999 0.60835445020772 0.08843119997329 
