data_stdin
_audit_creation_method 'critic2'
_audit_creation_date 2023-8-11
_chemical_formula_sum 'C10 H8'
_cell_formula_units_Z 3
_cell_length_a        10.5392447536
_cell_length_b        10.5384589046
_cell_length_c         5.9673495025
_cell_angle_alpha        90.0388
_cell_angle_beta        89.9677
_cell_angle_gamma       119.9870
_cell_volume           574.057443
_space_group_crystal_system triclinic
_space_group_IT_number 1
_space_group_name_H-M_alt 'P1'
_space_group_name_Hall 'P 1'
loop_
_symmetry_equiv_pos_site_id
_symmetry_equiv_pos_as_xyz
 1 'x,y,z'
loop_
_atom_site_label
_atom_site_type_symbol
_atom_site_fract_x
_atom_site_fract_y
_atom_site_fract_z
C1    C     0.07164871059207 0.36858737040177 0.03737282066230 
C2    C     0.63142855027937 0.70309292051762 0.70417236048901 
C3    C     0.29674163976068 0.92843301947530 0.37074298979684 
C4    C     0.14688216986913 0.51674541004227 0.08296035067770 
C5    C     0.48328554012705 0.63019677000394 0.74976358937018 
C6    C     0.36966744988045 0.85321857951398 0.41639354923219 
C7    C     0.13614188030102 0.61656775016676 0.93661277019307 
C8    C     0.38347689994580 0.51958593052900 0.60335378920893 
C9    C     0.48035166991104 0.86396247980990 0.27010948973137 
C10   C     0.04794285025542 0.56610165020346 0.74919326019567 
C11   C     0.43394193039573 0.48178724003624 0.41585495003973 
C12   C     0.51819929052782 0.95214629011307 0.08269136978424 
C13   C     0.96796229051846 0.41407881052159 0.69850457028875 
C14   C     0.58594811999380 0.55380878043533 0.36514731046505 
C15   C     0.44615433047948 0.03210153038949 0.03193178060690 
C16   C     0.98191150070833 0.31306222048460 0.84387590968747 
C17   C     0.68695101046125 0.66880966038266 0.51059786991780 
C18   C     0.33106918965556 0.01814824986305 0.17723816077221 
C19   C     0.90610470020534 0.16170982947231 0.78778155928712 
C20   C     0.83828691010857 0.74431120974610 0.45450427977600 
C21   C     0.25553084014806 0.09393192975303 0.12106999968268 
C22   C     0.81956662981114 0.11235711040288 0.59827720921792 
C23   C     0.88763499025518 0.70705735972629 0.26491967978647 
C24   C     0.29283437998320 0.18045072947730 0.93156254026445 
C25   C     0.80316400007219 0.21174215979156 0.45856925039763 
C26   C     0.78826241006509 0.59124897014035 0.12511506976994 
C27   C     0.40873266990701 0.19685619947457 0.79191537050378 
C28   C     0.87564707946919 0.35927862960547 0.50786115931099 
C29   C     0.64074360034994 0.51623558044184 0.17440706013909 
C30   C     0.48378009011535 0.12439244946191 0.84127823989283 
H1    H     0.07892138043457 0.29183363005204 0.15170672051791 
H2    H     0.70817411040652 0.78715012005738 0.81856134005824 
H3    H     0.21262230001518 0.92116476991026 0.48502899966481 
H4    H     0.21488166990783 0.55780833954341 0.23217644002415 
H5    H     0.44222437983430 0.65718406027383 0.89903968019023 
H6    H     0.34265014013430 0.78523909033986 0.56561622079920 
H7    H     0.19767549042052 0.73331996026279 0.97396733021020 
H8    H     0.26673787011657 0.46438306957318 0.64072372071881 
H9    H     0.53557128972670 0.80244414013179 0.30751358928740 
H10   H     0.03746318051788 0.64171268037049 0.63659503048731 
H11   H     0.35834346973568 0.39566421041695 0.30320252071191 
H12   H     0.60438430029985 0.96263058026562 0.97014543021498 
H13   H     0.91771997009085 0.08527590959387 0.89742427031252 
H14   H     0.91471191052017 0.83238094025808 0.56421483026930 
H15   H     0.16739332057596 0.08231710048881 0.23066196034450 
H16   H     0.76168015001314 0.99625150032348 0.55606059957283 
H17   H     0.00372650983501 0.76524071003704 0.22270317941412 
H18   H     0.23462324040437 0.23832212038303 0.88929149919964 
H19   H     0.73278226983229 0.17096307973551 0.31170960050385 
H20   H     0.82903759989830 0.56160183018737 0.97818218064287 
H21   H     0.43841708010939 0.26721784002164 0.64504574055327 
H22   H     0.86350277038275 0.43571932038785 0.39976750985137 
H23   H     0.56431147013820 0.42763319961077 0.06624421999322 
H24   H     0.57245083068426 0.13653498051388 0.73323680973402 
