data_stdin
_audit_creation_method 'critic2'
_audit_creation_date 2023-8-11
_chemical_formula_sum 'C10 H8'
_cell_formula_units_Z 8
_cell_length_a         8.2481743000
_cell_length_b        16.1553595403
_cell_length_c        11.2432293160
_cell_angle_alpha        90.0022
_cell_angle_beta        90.0000
_cell_angle_gamma        90.0000
_cell_volume          1498.185281
_space_group_crystal_system orthorhombic
_space_group_IT_number 61
_space_group_name_H-M_alt 'Pbca'
_space_group_name_Hall '-P 2ac 2ab'
loop_
_symmetry_equiv_pos_site_id
_symmetry_equiv_pos_as_xyz
 1 'x,y,z'
 2 '-x,-y,-z'
 3 '-1/2-x,-y,-1/2+z'
 4 '-1/2+x,y,-1/2-z'
 5 '-1/2+x,-1/2-y,-z'
 6 '-1/2-x,-1/2+y,z'
 7 '-x,-1/2+y,-1/2-z'
 8 'x,-1/2-y,-1/2+z'
loop_
_atom_site_label
_atom_site_type_symbol
_atom_site_fract_x
_atom_site_fract_y
_atom_site_fract_z
C1    C     0.37464930997840 0.11939856988192 0.62322635042200 
C2    C     0.37455160954110 0.19306437994974 0.68509131976444 
C3    C     0.37460874976362 0.19316692997111 0.81093885975912 
C4    C     0.37497207049432 0.11959619021860 0.87304972966141 
C5    C     0.37522415056014 0.04261727984505 0.81209267017484 
C6    C     0.37488903002918 0.04252213989008 0.68445390021180 
C7    C     0.37488053000562 0.96551672977785 0.62365247993536 
C8    C     0.37540984019631 0.89187561007653 0.68559083027310 
C9    C     0.37589012981802 0.89196375030801 0.81139678956225 
C10   C     0.37576606960750 0.96569397984295 0.87312463962004 
H1    H     0.37453575976759 0.11900437996291 0.52630663995599 
H2    H     0.37447023976138 0.25175879019710 0.63749054993139 
H3    H     0.37436835956866 0.25194535979999 0.85831513957492 
H4    H     0.37509983961084 0.11936340015643 0.96997756033031 
H5    H     0.37456246059546 0.96542528010984 0.52683507995560 
H6    H     0.37545360020999 0.83319003985990 0.63791605963788 
H7    H     0.37640292961771 0.83333771979521 0.85921341969714 
H8    H     0.37605804960794 0.96573543021001 0.96995105969494 
