data_stdin
_audit_creation_method 'critic2'
_audit_creation_date 2023-8-11
_chemical_formula_sum 'C10 H8'
_cell_formula_units_Z 4
_cell_length_a         4.4130358196
_cell_length_b        30.5723402043
_cell_length_c         6.9017748452
_cell_angle_alpha        89.9534
_cell_angle_beta        58.6216
_cell_angle_gamma        89.9331
_cell_volume           794.979035
_space_group_crystal_system triclinic
_space_group_IT_number 1
_space_group_name_H-M_alt 'P1'
_space_group_name_Hall 'P 1'
loop_
_symmetry_equiv_pos_site_id
_symmetry_equiv_pos_as_xyz
 1 'x,y,z'
 2 '-1/2+x,-1/2+y,z'
loop_
_atom_site_label
_atom_site_type_symbol
_atom_site_fract_x
_atom_site_fract_y
_atom_site_fract_z
C1    C     0.99185525030695 0.89910554994298 0.01002063066668 
C2    C     0.99508643146058 0.10091448012861 0.00969837952338 
C3    C     0.19605919939461 0.93297990000362 0.87172276962875 
C4    C     0.20013758054542 0.06706918003103 0.87141401964566 
C5    C     0.27956739015354 0.93519292001123 0.64426836042508 
C6    C     0.28375506848601 0.06485850992095 0.64394794076256 
C7    C     0.15791073984269 0.90354575004078 0.55905648915032 
C8    C     0.16132604995686 0.09647594009212 0.55872009058382 
C9    C     0.94916862888176 0.86810708986954 0.69668407001029 
C10   C     0.95175441965114 0.13188926994316 0.69632379953763 
C11   C     0.86382100145256 0.86587903999425 0.92735557927236 
C12   C     0.86633013114865 0.13411733002119 0.92699867940319 
C13   C     0.65486906986775 0.83044055015463 0.06502147075744 
C14   C     0.65659582920994 0.16953366992205 0.06463302986439 
C15   C     0.53380500882290 0.79875650015149 0.97961333035711 
C16   C     0.53484863939682 0.20119582985533 0.97919388944883 
C17   C     0.61836715053413 0.80090187998917 0.75187206935575 
C18   C     0.61945950146659 0.19904860984490 0.75145404964836 
C19   C     0.82210599017823 0.83481249015552 0.61374173962547 
C20   C     0.82394959976557 0.16515978011225 0.61335330946560 
H1    H     0.92749014034873 0.89721675987479 0.18505265967012 
H2    H     0.93063039051216 0.10280166014761 0.18473987005710 
H3    H     0.29898303046608 0.95773163006966 0.93593262066036 
H4    H     0.30370404844145 0.04234503984744 0.93562699054960 
H5    H     0.44371893902655 0.96183340005322 0.53552602024119 
H6    H     0.44868855108488 0.03825022987757 0.53519281964153 
H7    H     0.22409471957909 0.90519431013535 0.38353862011809 
H8    H     0.22757311088300 0.09482745997919 0.38319742955255 
H9    H     0.58881555883736 0.82881480001290 0.24054734014516 
H10   H     0.59048690140520 0.17115946016117 0.24016219942230 
H11   H     0.37147332018609 0.77183843992312 0.08683432034457 
H12   H     0.37195874883238 0.22809960990465 0.08638041054717 
H13   H     0.51788772003309 0.77580224009487 0.68783182026616 
H14   H     0.51842907007863 0.22413054995304 0.68739423957709 
H15   H     0.88759904908349 0.83664046004027 0.43844834044159 
H16   H     0.88948680962171 0.16333166003331 0.43806021007391 
