data_stdin
_audit_creation_method 'critic2'
_audit_creation_date 2023-8-11
_chemical_formula_sum 'C10 H8'
_cell_formula_units_Z 8
_cell_length_a        14.5243884320
_cell_length_b        14.5244725920
_cell_length_c         7.1805995501
_cell_angle_alpha        90.0002
_cell_angle_beta        89.9998
_cell_angle_gamma        90.0019
_cell_volume          1514.812686
_space_group_crystal_system tetragonal
_space_group_IT_number 114
_space_group_name_H-M_alt 'P-42_1c'
_space_group_name_Hall 'P -4 2n'
loop_
_symmetry_equiv_pos_site_id
_symmetry_equiv_pos_as_xyz
 1 'x,y,z'
 2 'y,-x,-z'
 3 '-x,-y,z'
 4 '-y,x,-z'
 5 '-1/2-x,-1/2+y,-1/2-z'
 6 '-1/2-y,-1/2-x,-1/2+z'
 7 '-1/2+x,-1/2-y,-1/2-z'
 8 '-1/2+y,-1/2+x,-1/2+z'
loop_
_atom_site_label
_atom_site_type_symbol
_atom_site_fract_x
_atom_site_fract_y
_atom_site_fract_z
C1    C     0.33681800996208 0.14511239034132 0.13237785019934 
C2    C     0.38962127004300 0.07146343984120 0.18956411035085 
C3    C     0.34859987015762 0.99547374974439 0.28086492945755 
C4    C     0.25503586991225 0.99457347992117 0.31401003042446 
C5    C     0.19872370020566 0.06921012002223 0.25601016042549 
C6    C     0.24036184999694 0.14605430973195 0.16263341935463 
C7    C     0.18343849007232 0.21980388969594 0.10206477006411 
C8    C     0.08967738004948 0.21808156997839 0.13267090040195 
C9    C     0.04858522016134 0.14216227005559 0.22421137938261 
C10   C     0.10210736982503 0.06966723982215 0.28454761017785 
H1    H     0.36878042995870 0.20307480018904 0.06124933977975 
H2    H     0.46340493988074 0.07215198001993 0.16324301067368 
H3    H     0.39091961980441 0.93752586001911 0.32517438057448 
H4    H     0.22286405975382 0.93638826991067 0.38428363043639 
H5    H     0.21510453020381 0.27709327993414 0.02771063068732 
H6    H     0.04631215020201 0.27417742971514 0.08357826009037 
H7    H     0.97422702033756 0.14124354966098 0.24405261959760 
H8    H     0.07146135981315 0.01043588974424 0.35358553054085 
