data_stdin
_audit_creation_method 'critic2'
_audit_creation_date 2023-8-11
_chemical_formula_sum 'C10 H8'
_cell_formula_units_Z 4
_cell_length_a         4.9732393315
_cell_length_b        27.2525889123
_cell_length_c         5.5408656807
_cell_angle_alpha        90.0006
_cell_angle_beta        90.0002
_cell_angle_gamma        89.9993
_cell_volume           750.973733
_space_group_crystal_system orthorhombic
_space_group_IT_number 33
_space_group_name_H-M_alt 'Pna2_1'
_space_group_name_Hall 'P 2c -2n'
loop_
_symmetry_equiv_pos_site_id
_symmetry_equiv_pos_as_xyz
 1 'x,y,z'
 2 '-x,-y,-1/2+z'
 3 '-1/2-x,-1/2+y,-1/2+z'
 4 '-1/2+x,-1/2-y,z'
loop_
_atom_site_label
_atom_site_type_symbol
_atom_site_fract_x
_atom_site_fract_y
_atom_site_fract_z
C1    C     0.48003622062541 0.83696690017428 0.05311686926044 
C2    C     0.67237333055042 0.80233799995749 0.99671231978788 
C3    C     0.82794699080268 0.80693088985779 0.78381742028468 
C4    C     0.79065267958419 0.84648805992813 0.63251973089938 
C5    C     0.59581016040941 0.88295558991211 0.68595531956399 
C6    C     0.43589603907473 0.87800501987240 0.90030394028741 
C7    C     0.23959136967991 0.91430699994083 0.95236982064596 
C8    C     0.20437634007595 0.95401088013646 0.80153049037942 
C9    C     0.36446565091419 0.95925483004828 0.59197672062594 
C10   C     0.55534432962172 0.92440514012528 0.53531144963096 
H1    H     0.36153667090609 0.83361249993720 0.21774674988560 
H2    H     0.70587760948343 0.77118716015745 0.11626295942144 
H3    H     0.97927890903343 0.77932497015064 0.74226213982602 
H4    H     0.91193376925165 0.85054853993290 0.46999073001585 
H5    H     0.11699665098961 0.91018420999077 0.11406341030197 
H6    H     0.05332459036849 0.98163056985762 0.84312462040633 
H7    H     0.33986242949088 0.99111889013667 0.47555447008281 
H8    H     0.67719063996855 0.92824228018204 0.37300007021493 
