data_stdin
_audit_creation_method 'critic2'
_audit_creation_date 2023-8-11
_chemical_formula_sum 'C10 H8'
_cell_formula_units_Z 4
_cell_length_a        11.6706333883
_cell_length_b         5.6900718722
_cell_length_c        12.1398677725
_cell_angle_alpha        89.9993
_cell_angle_beta        63.3568
_cell_angle_gamma        89.9984
_cell_volume           720.567186
_space_group_crystal_system monoclinic
_space_group_IT_number 14
_space_group_name_H-M_alt 'P2_1/c'
_space_group_name_Hall '-P 2ybc'
loop_
_symmetry_equiv_pos_site_id
_symmetry_equiv_pos_as_xyz
 1 'x,y,z'
 2 '-x,-y,-z'
 3 '-x,-1/2+y,-1/2-z'
 4 'x,-1/2-y,-1/2+z'
loop_
_atom_site_label
_atom_site_type_symbol
_atom_site_fract_x
_atom_site_fract_y
_atom_site_fract_z
C1    C     0.65968181964369 0.16924163066472 0.70081022020658 
C2    C     0.58587897957287 0.14467280074919 0.63899414013992 
C3    C     0.59691297981925 0.30870910937110 0.54720017022057 
C4    C     0.68096482956023 0.49538563042858 0.51908659036261 
C5    C     0.75817749017342 0.52528592006824 0.58102598964143 
C6    C     0.74731965029497 0.35865400087733 0.67405325961147 
C7    C     0.82459173029901 0.38948873913723 0.73601519960142 
C8    C     0.90921379054169 0.57516061995101 0.70681629974562 
C9    C     0.92007111996456 0.73871483949785 0.61487507036427 
C10   C     0.84587129973729 0.71447969990807 0.55371453015768 
H1    H     0.65195187019152 0.04093043959368 0.77032535012449 
H2    H     0.51910971953393 0.99834450008604 0.66116236020141 
H3    H     0.53908784994688 0.28626093990192 0.49815782004033 
H4    H     0.69029473056380 0.62266564945182 0.44830904963819 
H5    H     0.81493369020094 0.26489678987284 0.80780249961646 
H6    H     0.96841596985297 0.59736829085273 0.75444175954928 
H7    H     0.98707999027963 0.88448969005639 0.59279393978170 
H8    H     0.85218478007559 0.84103935983996 0.48394929986773 
