data_stdin
_audit_creation_method 'critic2'
_audit_creation_date 2023-8-11
_chemical_formula_sum 'C10 H8'
_cell_formula_units_Z 8
_cell_length_a        19.1516299706
_cell_length_b        19.1515288199
_cell_length_c         4.1674272232
_cell_angle_alpha        90.0010
_cell_angle_beta        90.0050
_cell_angle_gamma        90.0037
_cell_volume          1528.541422
_space_group_crystal_system tetragonal
_space_group_IT_number 114
_space_group_name_H-M_alt 'P-42_1c'
_space_group_name_Hall 'P -4 2n'
loop_
_symmetry_equiv_pos_site_id
_symmetry_equiv_pos_as_xyz
 1 'x,y,z'
 2 'y,-x,-z'
 3 '-x,-y,z'
 4 '-y,x,-z'
 5 '-1/2+x,-1/2-y,-1/2-z'
 6 '-1/2+y,-1/2+x,-1/2+z'
 7 '-1/2-x,-1/2+y,-1/2-z'
 8 '-1/2-y,-1/2-x,-1/2+z'
loop_
_atom_site_label
_atom_site_type_symbol
_atom_site_fract_x
_atom_site_fract_y
_atom_site_fract_z
C1    C     0.11522439989255 0.25476636022245 0.04648128075056 
C2    C     0.12956102018576 0.18501575025460 0.99767769013913 
C3    C     0.08408505983268 0.13323326000002 0.12064314099692 
C4    C     0.02524022975431 0.15196976988053 0.29087200080055 
C5    C     0.00871550008156 0.22328226021102 0.34330360932748 
C6    C     0.05486323983621 0.27575692014120 0.21915626936686 
C7    C     0.03853824977245 0.34704176988228 0.27329748006433 
C8    C     0.97962496017117 0.36577641009524 0.44297199029005 
C9    C     0.93394484999134 0.31405427003600 0.56409581993299 
C10   C     0.94825430000210 0.24433644018247 0.51475320045511 
H1    H     0.14991236015436 0.29474172014619 0.95030335003442 
H2    H     0.17554764011288 0.16945844003638 0.86153191948085 
H3    H     0.09603399010256 0.07835202009542 0.07982081903305 
H4    H     0.99049371980391 0.11223284017009 0.38877678047780 
H5    H     0.07350092012122 0.38677586981331 0.17765464897576 
H6    H     0.96773427984565 0.42064997974573 0.48485838111379 
H7    H     0.88789683984104 0.32961144987226 0.69961820111174 
H8    H     0.91344726974537 0.20438871019142 0.60948164956132 
