data_stdin
_audit_creation_method 'critic2'
_audit_creation_date 2023-8-11
_chemical_formula_sum 'C10 H8'
_cell_formula_units_Z 4
_cell_length_a        27.3067305718
_cell_length_b         5.8329840803
_cell_length_c         4.6900957847
_cell_angle_alpha        90.0000
_cell_angle_beta        90.0105
_cell_angle_gamma        90.0003
_cell_volume           747.037153
_space_group_crystal_system orthorhombic
_space_group_IT_number 29
_space_group_name_H-M_alt 'Pca2_1'
_space_group_name_Hall 'P 2c -2ac'
loop_
_symmetry_equiv_pos_site_id
_symmetry_equiv_pos_as_xyz
 1 'x,y,z'
 2 '-x,-y,-1/2+z'
 3 '-1/2-x,y,-1/2+z'
 4 '-1/2+x,-y,z'
loop_
_atom_site_label
_atom_site_type_symbol
_atom_site_fract_x
_atom_site_fract_y
_atom_site_fract_z
C1    C     0.91532999999531 0.48584166081427 0.00428569905063 
C2    C     0.95348576990549 0.63394447983267 0.94791100024403 
C3    C     0.95633987013049 0.84749769961697 0.09038876034470 
C4    C     0.92110479991045 0.90921694945381 0.28661591007934 
C5    C     0.88132986017890 0.76094299038388 0.34883925105202 
C6    C     0.87845455986014 0.54424032984648 0.20493135969202 
C7    C     0.83868940990423 0.39582174996723 0.26796776986746 
C8    C     0.80361556003545 0.45763832963865 0.46517823075451 
C9    C     0.80644155001803 0.67164380917656 0.60677090911200 
C10   C     0.84450503001150 0.81977970986850 0.54945992928966 
H1    H     0.91281995992425 0.32191266055463 0.89379298908580 
H2    H     0.98133022997211 0.58763156968630 0.79195364055845 
H3    H     0.98644557987194 0.96396729957873 0.04352134940624 
H4    H     0.92324705996901 0.07370454922359 0.39620581087251 
H5    H     0.83643037006073 0.23138526982880 0.15839064955470 
H6    H     0.77339915984103 0.34190420915514 0.51321545934079 
H7    H     0.77865105014128 0.71694284914777 0.76338413983658 
H8    H     0.84715599990525 0.98372963007337 0.65977242104228 
