data_stdin
_audit_creation_method 'critic2'
_audit_creation_date 2023-8-11
_chemical_formula_sum 'C10 H8'
_cell_formula_units_Z 8
_cell_length_a        15.8018879701
_cell_length_b        11.3692685500
_cell_length_c         8.3780211800
_cell_angle_alpha        90.0000
_cell_angle_beta        89.9997
_cell_angle_gamma        90.0000
_cell_volume          1505.161002
_space_group_crystal_system orthorhombic
_space_group_IT_number 61
_space_group_name_H-M_alt 'Pbca'
_space_group_name_Hall '-P 2ac 2ab'
loop_
_symmetry_equiv_pos_site_id
_symmetry_equiv_pos_as_xyz
 1 'x,y,z'
 2 '-x,-y,-z'
 3 '-x,-1/2+y,-1/2-z'
 4 'x,-1/2-y,-1/2+z'
 5 '-1/2-x,-y,-1/2+z'
 6 '-1/2+x,y,-1/2-z'
 7 '-1/2+x,-1/2-y,-z'
 8 '-1/2-x,-1/2+y,z'
loop_
_atom_site_label
_atom_site_type_symbol
_atom_site_fract_x
_atom_site_fract_y
_atom_site_fract_z
C1    C     0.67029382984045 0.00781490992848 0.02682209010161 
C2    C     0.74668022029434 0.96020778973271 0.97996965940462 
C3    C     0.77353572025023 0.85054004003174 0.04187393024967 
C4    C     0.72395970989325 0.79020676968965 0.14981447038968 
C5    C     0.64569442986309 0.83786799967383 0.20240528043386 
C6    C     0.61826082996897 0.94919422987592 0.13987737994116 
C7    C     0.54072242030066 0.99757038969640 0.19502251056722 
C8    C     0.49271202006964 0.93973825990878 0.30788151955791 
C9    C     0.52013080002403 0.83032087986858 0.36996532000853 
C10   C     0.59447302986071 0.78000364967295 0.31732102944504 
H1    H     0.64912038985667 0.09137404039780 0.97715710953092 
H2    H     0.78623149022556 0.00680275016026 0.89460366042565 
H3    H     0.83346433972616 0.81342522011292 0.00206458998402 
H4    H     0.74382019024329 0.70499042979532 0.19588574996216 
H5    H     0.51992934981446 0.08189225959411 0.14765572002558 
H6    H     0.43389986019277 0.97866538016770 0.35029426049600 
H7    H     0.48292266017393 0.78652890962586 0.46196438946156 
H8    H     0.61589176006678 0.69609034958153 0.36509128025650 
