data_stdin
_audit_creation_method 'critic2'
_audit_creation_date 2023-8-11
_chemical_formula_sum 'C10 H8'
_cell_formula_units_Z 8
_cell_length_a        16.2948888964
_cell_length_b         5.8935238911
_cell_length_c        16.7005907224
_cell_angle_alpha        90.0013
_cell_angle_beta        64.6085
_cell_angle_gamma        89.9988
_cell_volume          1448.898552
_space_group_crystal_system monoclinic
_space_group_IT_number 15
_space_group_name_H-M_alt 'C2/c'
_space_group_name_Hall '-C 2yc'
loop_
_symmetry_equiv_pos_site_id
_symmetry_equiv_pos_as_xyz
 1 'x,y,z'
 2 '-x,-y,-z'
 3 '-x,y,-1/2-z'
 4 'x,-y,-1/2+z'
 5 '-1/2+x,-1/2+y,z'
 6 '-1/2-x,-1/2-y,-z'
 7 '-1/2-x,-1/2+y,-1/2-z'
 8 '-1/2+x,-1/2-y,-1/2+z'
loop_
_atom_site_label
_atom_site_type_symbol
_atom_site_fract_x
_atom_site_fract_y
_atom_site_fract_z
C1    C     0.21854391010531 0.76414494982972 0.32667744975133 
C2    C     0.29306412999031 0.69986809038895 0.34021395029362 
C3    C     0.29315276981132 0.48995020058220 0.38136676022418 
C4    C     0.21909881009155 0.34694389950641 0.40786905976764 
C5    C     0.14166754962204 0.40764811976646 0.39440633032142 
C6    C     0.14141729001407 0.62075379026159 0.35293282003355 
C7    C     0.06445121012824 0.68043545038192 0.33834208029534 
C8    C     0.99054835966734 0.53740703973366 0.36465261018290 
C9    C     0.99041141017444 0.32826033070709 0.40642261009496 
C10   C     0.06452464984987 0.26439484989968 0.42047100970253 
H1    H     0.21846941006751 0.92503141960815 0.29470625992116 
H2    H     0.35250301979308 0.80960082029624 0.31768349016552 
H3    H     0.35244036006315 0.44004144976156 0.39142682994981 
H4    H     0.21968821970650 0.18399323035058 0.43847696017519 
H5    H     0.06503789003772 0.84196849023963 0.30631409027348 
H6    H     0.93173481004904 0.58499838029335 0.35347809022073 
H7    H     0.93076085021855 0.21941444032331 0.42840074985627 
H8    H     0.06487635008389 0.10306560955780 0.45214028971805 
