data_stdin
_audit_creation_method 'critic2'
_audit_creation_date 2023-8-11
_chemical_formula_sum 'C10 H8'
_cell_formula_units_Z 8
_cell_length_a        15.9256627255
_cell_length_b         6.0476520723
_cell_length_c        15.3966343399
_cell_angle_alpha        89.9979
_cell_angle_beta        89.9983
_cell_angle_gamma        89.9998
_cell_volume          1482.893997
_space_group_crystal_system orthorhombic
_space_group_IT_number 20
_space_group_name_H-M_alt 'C222_1'
_space_group_name_Hall 'C 2c 2'
loop_
_symmetry_equiv_pos_site_id
_symmetry_equiv_pos_as_xyz
 1 'x,y,z'
 2 '-1/2-x,-1/2-y,-1/2+z'
 3 '-1/2-x,-1/2+y,-1/2-z'
 4 'x,-y,-z'
 5 '-1/2+x,-1/2+y,z'
 6 '-x,-y,-1/2+z'
 7 '-x,y,-1/2-z'
 8 '-1/2+x,-1/2-y,-z'
loop_
_atom_site_label
_atom_site_type_symbol
_atom_site_fract_x
_atom_site_fract_y
_atom_site_fract_z
C1    C     0.18403242018294 0.24294036019848 0.82457348998277 
C2    C     0.10198749007143 0.31129743074661 0.83462043970213 
C3    C     0.08369621982655 0.51784070975733 0.87340762024400 
C4    C     0.14779668013522 0.65408592015037 0.90105850018828 
C5    C     0.23292336986565 0.58974915081356 0.89083318017897 
C6    C     0.25145408031032 0.37928299067181 0.85208308995666 
C7    C     0.33669676022728 0.31569739071579 0.84091886978051 
C8    C     0.40069724983163 0.45358919018012 0.86754244025142 
C9    C     0.38245336030341 0.66002260923137 0.90651940982588 
C10   C     0.30045250976983 0.72675690068197 0.91750965995284 
H1    H     0.19793940017762 0.08443048949754 0.79435791985944 
H2    H     0.05098017992332 0.20626264063637 0.81200280031526 
H3    H     0.01853963024757 0.56842326963915 0.88150118967776 
H4    H     0.13405750021468 0.81310843020776 0.93121581003118 
H5    H     0.35040081001824 0.15723538978019 0.81024851003467 
H6    H     0.46587617971205 0.40421103926807 0.85841657969266 
H7    H     0.43364006005812 0.76572317970945 0.92822928979267 
H8    H     0.28629065024227 0.88633629955606 0.94676340990702 
