data_stdin
_audit_creation_method 'critic2'
_audit_creation_date 2023-8-11
_chemical_formula_sum 'C10 H8'
_cell_formula_units_Z 4
_cell_length_a         4.6934611943
_cell_length_b        27.8149272642
_cell_length_c         5.7449856012
_cell_angle_alpha        89.9864
_cell_angle_beta        89.9878
_cell_angle_gamma        89.9867
_cell_volume           749.997941
_space_group_crystal_system triclinic
_space_group_IT_number 1
_space_group_name_H-M_alt 'P1'
_space_group_name_Hall 'P 1'
loop_
_symmetry_equiv_pos_site_id
_symmetry_equiv_pos_as_xyz
 1 'x,y,z'
loop_
_atom_site_label
_atom_site_type_symbol
_atom_site_fract_x
_atom_site_fract_y
_atom_site_fract_z
C1    C     0.28034598997087 0.58783711985802 0.99712544973075 
C2    C     0.71919094929753 0.41223543013165 0.49589260027600 
C3    C     0.22005248982665 0.08774236999057 0.49722225947270 
C4    C     0.78043447969444 0.91230155992468 0.99618730949979 
C5    C     0.22869703946819 0.54866266986401 0.13789841082020 
C6    C     0.77072413012498 0.45141799002241 0.63653428024339 
C7    C     0.27160430898869 0.04856764000101 0.63803264047492 
C8    C     0.72894269920594 0.95147287008939 0.13696642918790 
C9    C     0.37479315987324 0.54348412014234 0.35187423991086 
C10   C     0.62448564098055 0.45661500997651 0.85046998070638 
C11   C     0.12538137912265 0.04340224012421 0.85199289993287 
C12   C     0.87526266054479 0.95664172985158 0.35081395078244 
C13   C     0.56870466925178 0.57777115990538 0.42240119958752 
C14   C     0.43051270026081 0.42233137011298 0.92109197919092 
C15   C     0.93141720918027 0.07770617989455 0.92248244003459 
C16   C     0.06929435053683 0.92233890999850 0.42122723037035 
C17   C     0.62610720086571 0.61862594009370 0.28206682079211 
C18   C     0.37329197005291 0.38146072012724 0.78093459055842 
C19   C     0.87414079064750 0.11856429998884 0.78213639020907 
C20   C     0.12645683942802 0.88147900992977 0.28094463018098 
C21   C     0.48003865025204 0.62358052992667 0.06387889926314 
C22   C     0.51950851068372 0.37648842991370 0.56278070011019 
C23   C     0.02032919959946 0.12350526986458 0.56394896007265 
C24   C     0.98017095900426 0.87653535987770 0.06286555973343 
C25   C     0.54073539983221 0.66407101999354 0.92183665046839 
C26   C     0.45902091020229 0.33596864016379 0.42097454055089 
C27   C     0.95968846048138 0.16400187010517 0.42190633945094 
C28   C     0.04063396991066 0.83601857015752 0.92096061963445 
C29   C     0.73674274012966 0.69808542993837 0.99160100019573 
C30   C     0.26326558043296 0.30192584990107 0.49103459015555 
C31   C     0.76377595000736 0.19804645010033 0.49174858975927 
C32   C     0.23635755970485 0.80195104001322 0.99089689932132 
C33   C     0.87934727986656 0.69338316986271 0.20760297946856 
C34   C     0.12053943093052 0.30664436004464 0.70700481962292 
C35   C     0.62109349994572 0.19336083984010 0.70775959008010 
C36   C     0.37911090012831 0.80663862986558 0.20680918966529 
C37   C     0.82518358895850 0.65444393994947 0.34924417967486 
C38   C     0.17432799988305 0.34563080012462 0.84833317010878 
C39   C     0.67506750992851 0.15440208997659 0.84933824959678 
C40   C     0.32541204895526 0.84562667995328 0.34819711922444 
H1    H     0.16790778905933 0.59196258004402 0.83243657971706 
H2    H     0.83176585008093 0.40809528011058 0.33124468068375 
H3    H     0.33259755082140 0.09185769003500 0.33254183019664 
H4    H     0.66779177926768 0.90818189002960 0.83160158916684 
H5    H     0.07497690066806 0.52149207991539 0.08499196979193 
H6    H     0.92450591055403 0.47858090014383 0.58354703034380 
H7    H     0.42541981015089 0.02139052989481 0.58518674022019 
H8    H     0.57507770105000 0.97864608006781 0.08416753933616 
H9    H     0.33679968086579 0.51209834017271 0.46082021989197 
H10   H     0.66239709012270 0.48801292984857 0.95927690919594 
H11   H     0.16326842047785 0.01201055006334 0.96092712078262 
H12   H     0.83739940004349 0.98803112995829 0.45971811972861 
H13   H     0.68048939939329 0.57386889984902 0.58760236968397 
H14   H     0.31860696910906 0.42624285999880 0.08626186024331 
H15   H     0.81953294905408 0.07381512012027 0.08767694005924 
H16   H     0.18126901907119 0.92623001015689 0.58633026987347 
H17   H     0.43112116098653 0.66765931997912 0.75547610061471 
H18   H     0.56851561951041 0.33239645997052 0.25451871951350 
H19   H     0.06913779921504 0.16754874004980 0.25541530016955 
H20   H     0.93115056900990 0.83247886988991 0.75452411080080 
H21   H     0.78333625920814 0.72887174990659 0.88068615915289 
H22   H     0.21694094024434 0.27111495991910 0.38028599955414 
H23   H     0.71727436970317 0.22883259002246 0.38079255015844 
H24   H     0.28257698045127 0.77114034013937 0.88006980997875 
H25   H     0.03498077057245 0.72039417997536 0.25909756958800 
H26   H     0.96498623102867 0.27962726014758 0.75869627085414 
H27   H     0.46541526961172 0.22037976992211 0.75927096922855 
H28   H     0.53463790919929 0.77960350990995 0.25842031028541 
H29   H     0.93681100895343 0.65034265991279 0.51432527976812 
H30   H     0.06220154028320 0.34978440007027 0.01319072076399 
H31   H     0.56296912903097 0.15027084010392 0.01422610011680 
H32   H     0.43770438903843 0.84976429999462 0.51293232935871 
