data_stdin
_audit_creation_method 'critic2'
_audit_creation_date 2023-8-11
_chemical_formula_sum 'C10 H8'
_cell_formula_units_Z 4
_cell_length_a        31.2386093299
_cell_length_b         5.9574036522
_cell_length_c         3.9384516726
_cell_angle_alpha        89.9997
_cell_angle_beta        90.0198
_cell_angle_gamma        90.0166
_cell_volume           732.949741
_space_group_crystal_system triclinic
_space_group_IT_number 1
_space_group_name_H-M_alt 'P1'
_space_group_name_Hall 'P 1'
loop_
_symmetry_equiv_pos_site_id
_symmetry_equiv_pos_as_xyz
 1 'x,y,z'
loop_
_atom_site_label
_atom_site_type_symbol
_atom_site_fract_x
_atom_site_fract_y
_atom_site_fract_z
C1    C     0.66613529013009 0.31470366032145 0.04528216002634 
C2    C     0.33388672001083 0.68508947001585 0.54521393970441 
C3    C     0.83390384986911 0.81436005960135 0.54594695096685 
C4    C     0.16611834986538 0.18584867944781 0.04601929973458 
C5    C     0.69780569012433 0.15859076010749 0.98546403905370 
C6    C     0.30220623996330 0.84119072969601 0.48548034963618 
C7    C     0.80222419995278 0.65811127033052 0.48650937944836 
C8    C     0.19778795014114 0.34210865046201 0.98649646873527 
C9    C     0.68780405997359 0.95111131980099 0.83008848088806 
C10   C     0.31218565009208 0.04869514076901 0.33015027984126 
C11   C     0.81219340009340 0.45064112035409 0.33112383123168 
C12   C     0.18779658008069 0.54955218019563 0.83106244070206 
C13   C     0.64637999007948 0.90335317024690 0.73399047091847 
C14   C     0.35359782006864 0.09648845050545 0.23401083024195 
C15   C     0.85359494008791 0.40303116980588 0.23462683899594 
C16   C     0.14638311985462 0.59712591927049 0.73460551926274 
C17   C     0.61297947012142 0.06003476936346 0.79188722922265 
C18   C     0.38700841011866 0.93982100052456 0.29183260125393 
C19   C     0.88700584010450 0.55983866958615 0.29218360995174 
C20   C     0.11298223992397 0.44030483970438 0.79223824993124 
C21   C     0.62306241987068 0.27007684953229 0.95189761115442 
C22   C     0.37694809988012 0.72975406994096 0.45179769117476 
C23   C     0.87695606006850 0.76987030926369 0.45220914936135 
C24   C     0.12305465010514 0.23029948065604 0.95231169025498 
C25   C     0.58959540007631 0.42620101035611 0.01095940037607 
C26   C     0.41042583012288 0.57365342059573 0.51081900016288 
C27   C     0.91043538985121 0.92609726036659 0.51100879876420 
C28   C     0.08958600010088 0.07404951008204 0.01115260985268 
C29   C     0.54816957004857 0.37861707919600 0.91440343120607 
C30   C     0.45184102985895 0.62128660035441 0.41427455115910 
C31   C     0.95184248012879 0.87861252976830 0.41421421935121 
C32   C     0.04816826998738 0.12148397061379 0.91434534061408 
C33   C     0.53823867986266 0.17191139918376 0.75618877995427 
C34   C     0.46174948987831 0.82801603943825 0.25610270968170 
C35   C     0.96174054989955 0.67191721059416 0.25598665914034 
C36   C     0.03824780015270 0.32815399083793 0.75607255121213 
C37   C     0.56995032014160 0.01586547024832 0.69720299983425 
C38   C     0.43002683014972 0.98403644065346 0.19714812031098 
C39   C     0.93001573009377 0.51578442986829 0.19721645061124 
C40   C     0.06996162006810 0.48431185057628 0.69727025051459 
H1    H     0.67367515000589 0.47403861924429 0.16741149122179 
H2    H     0.32636265009250 0.52573811943403 0.66730915046252 
H3    H     0.82638666996655 0.97368553012750 0.66808086113508 
H4    H     0.17365128997179 0.02654086043604 0.16818920122131 
H5    H     0.73069988995146 0.19375849057721 0.05955618950980 
H6    H     0.26932182985205 0.80599270050496 0.55961653924158 
H7    H     0.76934895015014 0.69315068009802 0.56096944020918 
H8    H     0.23067302995697 0.30710061996641 0.06091301037379 
H9    H     0.71302543991061 0.82833660987338 0.78690274878517 
H10   H     0.28695634989787 0.17145952982613 0.28704226074679 
H11   H     0.78696528006615 0.32775504067966 0.28827602957543 
H12   H     0.21301682002175 0.67244815963932 0.78813695966011 
H13   H     0.63874362006516 0.74383617026613 0.61325442021177 
H14   H     0.36121813014552 0.25602056990238 0.11330086002815 
H15   H     0.86120935991104 0.24353126949523 0.11386283113908 
H16   H     0.13875261996213 0.75660939028589 0.61381347060052 
H17   H     0.59718411001669 0.58529752037795 0.13318766954466 
H18   H     0.40285309991809 0.41454280963353 0.63302357053252 
H19   H     0.90286910995289 0.08517876949329 0.63326112088566 
H20   H     0.09716828011160 0.91498335052752 0.13343032025914 
H21   H     0.52286138004034 0.50054584030739 0.95978161046640 
H22   H     0.47715823990190 0.49938228956848 0.45963360040623 
H23   H     0.97716123997493 0.00060466076929 0.45943506011583 
H24   H     0.02285847008791 0.99946792054807 0.95958563004885 
H25   H     0.50546681987187 0.13594826023528 0.67870916020680 
H26   H     0.49451281002536 0.86401999075553 0.17863455126927 
H27   H     0.99449709984723 0.63602346009511 0.17831940096792 
H28   H     0.00548270013052 0.36400584077491 0.67839314103144 
H29   H     0.56244543989077 0.85651562042123 0.57489988884941 
H30   H     0.43751623003009 0.14340276010598 0.07487991088225 
H31   H     0.93749834988760 0.35644654043129 0.07490198044349 
H32   H     0.06246351984620 0.64363205068649 0.57491922115709 
