data_stdin
_audit_creation_method 'critic2'
_audit_creation_date 2023-8-11
_chemical_formula_sum 'C10 H8'
_cell_formula_units_Z 4
_cell_length_a         5.8227608947
_cell_length_b         6.0496790210
_cell_length_c        20.5263609732
_cell_angle_alpha        90.0003
_cell_angle_beta        86.4467
_cell_angle_gamma        89.9999
_cell_volume           721.668167
_space_group_crystal_system monoclinic
_space_group_IT_number 14
_space_group_name_H-M_alt 'P2_1/c'
_space_group_name_Hall '-P 2ybc'
loop_
_symmetry_equiv_pos_site_id
_symmetry_equiv_pos_as_xyz
 1 'x,y,z'
 2 '-x,-y,-z'
 3 '-x,-1/2+y,-1/2-z'
 4 'x,-1/2-y,-1/2+z'
loop_
_atom_site_label
_atom_site_type_symbol
_atom_site_fract_x
_atom_site_fract_y
_atom_site_fract_z
C1    C     0.42129669067836 0.84824738926200 0.12236612988835 
C2    C     0.44913419963088 0.69113028972069 0.16988357004402 
C3    C     0.64473500085015 0.69561697930250 0.20749552982312 
C4    C     0.80958929030636 0.85756309031887 0.19694925003899 
C5    C     0.78517280934105 0.02343512930706 0.14887144005709 
C6    C     0.58666141030876 0.01858667980237 0.11073207005721 
C7    C     0.56164760002221 0.18449065949668 0.06275782990052 
C8    C     0.72466602046232 0.34836294057377 0.05285155982951 
C9    C     0.92015475990852 0.35341036946824 0.09041828997687 
C10   C     0.94978674065365 0.19430441960608 0.13725087985670 
H1    H     0.27120534021313 0.84534400970396 0.09320233982311 
H2    H     0.32173428986158 0.56123171053243 0.17864484006977 
H3    H     0.66333839022304 0.56850881058058 0.24436224978998 
H4    H     0.96191462076756 0.86031012952951 0.22526852988107 
H5    H     0.41065705019399 0.17943104960192 0.03397909988074 
H6    H     0.70290136067866 0.47592230920891 0.01636563016885 
H7    H     0.04633330036983 0.48497314940363 0.08257733988724 
H8    H     0.10161324068443 0.19688895919170 0.16567310977788 
