data_stdin
_audit_creation_method 'critic2'
_audit_creation_date 2023-8-11
_chemical_formula_sum 'C10 H8'
_cell_formula_units_Z 4
_cell_length_a        23.8759298117
_cell_length_b         3.9167838441
_cell_length_c         8.1982204554
_cell_angle_alpha        89.9994
_cell_angle_beta        73.8932
_cell_angle_gamma        89.9952
_cell_volume           736.576952
_space_group_crystal_system monoclinic
_space_group_IT_number 5
_space_group_name_H-M_alt 'C2'
_space_group_name_Hall 'C 2y'
loop_
_symmetry_equiv_pos_site_id
_symmetry_equiv_pos_as_xyz
 1 'x,y,z'
 2 '-1/2-x,-1/2+y,-z'
 3 '-1/2+x,-1/2+y,z'
 4 '-x,y,-z'
loop_
_atom_site_label
_atom_site_type_symbol
_atom_site_fract_x
_atom_site_fract_y
_atom_site_fract_z
C1    C     0.32200416988173 0.51291888016394 0.46447009995824 
C2    C     0.36032681001733 0.52147354899697 0.56283570027762 
C3    C     0.41666791995766 0.66250363898800 0.49762758015703 
C4    C     0.43350607006805 0.79643237927822 0.33576559960444 
C5    C     0.39496038018485 0.79309606873188 0.23144169960948 
C6    C     0.33810079008408 0.64597359974241 0.29700561004820 
C7    C     0.29974481990104 0.63744910050251 0.19226224039152 
C8    C     0.31652325987683 0.76887497917176 0.02999214938361 
C9    C     0.37233906987905 0.91730496000838 0.96586917022025 
C10   C     0.41052792985139 0.92986474000115 0.06464223041440 
H1    H     0.27881216012479 0.40208240033435 0.51390058028768 
H2    H     0.34741352984934 0.41755698899806 0.69099444002842 
H3    H     0.44663955023743 0.66461946010225 0.57647826959951 
H4    H     0.47660631988066 0.90932927956815 0.28592504049800 
H5    H     0.25693957019524 0.52088575921608 0.24234612993769 
H6    H     0.28681987013791 0.75707693091072 0.95052217053391 
H7    H     0.38495385006887 0.02311871995336 0.83808425006570 
H8    H     0.45312562998369 0.04883668112444 0.01608382969261 
