data_stdin
_audit_creation_method 'critic2'
_audit_creation_date 2023-8-11
_chemical_formula_sum 'C10 H8'
_cell_formula_units_Z 8
_cell_length_a         5.7442823211
_cell_length_b        15.4512283801
_cell_length_c        16.6434212117
_cell_angle_alpha        89.9999
_cell_angle_beta        89.9981
_cell_angle_gamma        90.0004
_cell_volume          1477.207121
_space_group_crystal_system orthorhombic
_space_group_IT_number 61
_space_group_name_H-M_alt 'Pbca'
_space_group_name_Hall '-P 2ac 2ab'
loop_
_symmetry_equiv_pos_site_id
_symmetry_equiv_pos_as_xyz
 1 'x,y,z'
 2 '-x,-y,-z'
 3 '-1/2-x,-y,-1/2+z'
 4 '-1/2+x,y,-1/2-z'
 5 '-1/2+x,-1/2-y,-z'
 6 '-1/2-x,-1/2+y,z'
 7 '-x,-1/2+y,-1/2-z'
 8 'x,-1/2-y,-1/2+z'
loop_
_atom_site_label
_atom_site_type_symbol
_atom_site_fract_x
_atom_site_fract_y
_atom_site_fract_z
C1    C     0.84306588055913 0.62428662973989 0.63776835981876 
C2    C     0.98203954986342 0.56459243988345 0.59898896003208 
C3    C     0.18902837923105 0.59140470975200 0.56001533995437 
C4    C     0.25544203959435 0.67714503015660 0.56112309017177 
C5    C     0.11594686999677 0.74021956992049 0.60010655007315 
C6    C     0.90425592063323 0.71338145999740 0.63875597013948 
C7    C     0.76256180944954 0.77680336986175 0.67635753970247 
C8    C     0.82714817008248 0.86278881011048 0.67582931004587 
C9    C     0.03567380069705 0.88924885028754 0.63781606983179 
C10   C     0.17751935070092 0.82926790989095 0.60075923998055 
H1    H     0.68272369928400 0.60432235012593 0.66753222017002 
H2    H     0.93241349958057 0.49659101987310 0.59778172974927 
H3    H     0.29614025996773 0.54406321986099 0.52865485978326 
H4    H     0.41503248062191 0.69755515023155 0.53146877005794 
H5    H     0.60184711035447 0.75686569979542 0.70573271979979 
H6    H     0.71755198042333 0.91038147988964 0.70570908988541 
H7    H     0.08474829970818 0.95733641979449 0.63846896994355 
H8    H     0.33837199084803 0.84899961010177 0.57121206993908 
