data_stdin
_audit_creation_method 'critic2'
_audit_creation_date 2023-8-11
_chemical_formula_sum 'C10 H8'
_cell_formula_units_Z 8
_cell_length_a        13.1932693700
_cell_length_b        10.9321512100
_cell_length_c        10.0931425300
_cell_angle_alpha        90.0000
_cell_angle_beta        90.0000
_cell_angle_gamma        90.0000
_cell_volume          1455.742180
_space_group_crystal_system orthorhombic
_space_group_IT_number 61
_space_group_name_H-M_alt 'Pbca'
_space_group_name_Hall '-P 2ac 2ab'
loop_
_symmetry_equiv_pos_site_id
_symmetry_equiv_pos_as_xyz
 1 'x,y,z'
 2 '-x,-y,-z'
 3 '-x,-1/2+y,-1/2-z'
 4 'x,-1/2-y,-1/2+z'
 5 '-1/2-x,-y,-1/2+z'
 6 '-1/2+x,y,-1/2-z'
 7 '-1/2+x,-1/2-y,-z'
 8 '-1/2-x,-1/2+y,z'
loop_
_atom_site_label
_atom_site_type_symbol
_atom_site_fract_x
_atom_site_fract_y
_atom_site_fract_z
C1    C     0.01603965755313 0.36418909468169 0.91620628307581 
C2    C     0.03235049470842 0.26029920992892 0.99086842340127 
C3    C     0.12960031308346 0.20613935106950 0.99648177323925 
C4    C     0.20947570870053 0.25809089579229 0.92879520556427 
C5    C     0.19581527957075 0.36559548173737 0.85204194731322 
C6    C     0.09657324991653 0.41930242622780 0.84434922725815 
C7    C     0.08281368464709 0.52613430749419 0.76604452259826 
C8    C     0.16339570574445 0.57793233433183 0.69943935846900 
C9    C     0.26143800085577 0.52587062137958 0.70817429894236 
C10   C     0.27704892507008 0.42189685837890 0.78269059172656 
H1    H     0.94136149603537 0.40654908389098 0.91364520923136 
H2    H     0.97038740977612 0.21942092670017 0.04675526341432 
H3    H     0.14115621978559 0.12348806746071 0.05440935952605 
H4    H     0.28411861741136 0.21559887124268 0.93206264910776 
H5    H     0.00769740201783 0.56716677775715 0.75905835128214 
H6    H     0.15217072385696 0.65994431654580 0.64018112123068 
H7    H     0.32381809982799 0.56961418589612 0.65574715136452 
H8    H     0.35229503372719 0.38124560493199 0.78984962098548 
