data_stdin
_audit_creation_method 'critic2'
_audit_creation_date 2023-8-11
_chemical_formula_sum 'C10 H8'
_cell_formula_units_Z 4
_cell_length_a         4.8617213101
_cell_length_b        27.0279785001
_cell_length_c         5.7928141758
_cell_angle_alpha        90.0024
_cell_angle_beta        90.0001
_cell_angle_gamma        89.9998
_cell_volume           761.190259
_space_group_crystal_system orthorhombic
_space_group_IT_number 18
_space_group_name_H-M_alt 'P2_12_12'
_space_group_name_Hall 'P 2 2ab'
loop_
_symmetry_equiv_pos_site_id
_symmetry_equiv_pos_as_xyz
 1 'x,y,z'
 2 '-x,-y,z'
 3 '-1/2+x,-1/2-y,-z'
 4 '-1/2-x,-1/2+y,-z'
loop_
_atom_site_label
_atom_site_type_symbol
_atom_site_fract_x
_atom_site_fract_y
_atom_site_fract_z
C1    C     0.50518157931865 0.07488320016920 0.51222132071007 
C2    C     0.69574701044592 0.05509178995985 0.36211985969298 
C3    C     0.75841329967361 0.07949983008773 0.15262533970317 
C4    C     0.62915446073782 0.12328843010133 0.09634992929210 
C5    C     0.43140023039889 0.14461608008459 0.24658865042235 
C6    C     0.36845158932300 0.11985930011318 0.45929641040187 
C7    C     0.17047250991515 0.14104490000412 0.60960534062648 
C8    C     0.03856926932597 0.18446133993260 0.55238741023896 
C9    C     0.09900938058210 0.20874079016547 0.34206321976014 
C10   C     0.29234421903390 0.18938977984143 0.19312334947286 
H1    H     0.45777450982003 0.05640155002796 0.67476177075380 
H2    H     0.79698588043776 0.02030707012646 0.40368101016411 
H3    H     0.91044694015907 0.06354276997483 0.03619062923936 
H4    H     0.67616540924458 0.14201815008986 0.93465146033886 
H5    H     0.12490189954352 0.12235175985956 0.77169568953118 
H6    H     0.88578117057985 0.20036103988798 0.66779358927899 
H7    H     0.99000891965515 0.24278088015652 0.29999064018517 
H8    H     0.33866331991399 0.20787871016290 0.03048359048452 
