data_stdin
_audit_creation_method 'critic2'
_audit_creation_date 2023-8-11
_chemical_formula_sum 'C10 H8'
_cell_formula_units_Z 4
_cell_length_a        11.3085628367
_cell_length_b         3.9745714244
_cell_length_c        17.0481521407
_cell_angle_alpha        90.0102
_cell_angle_beta        84.4316
_cell_angle_gamma        89.9989
_cell_volume           762.642117
_space_group_crystal_system monoclinic
_space_group_IT_number 13
_space_group_name_H-M_alt 'P2/c'
_space_group_name_Hall '-P 2yc'
loop_
_symmetry_equiv_pos_site_id
_symmetry_equiv_pos_as_xyz
 1 'x,y,z'
 2 '-x,-y,-z'
 3 '-x,y,-1/2-z'
 4 'x,-y,-1/2+z'
loop_
_atom_site_label
_atom_site_type_symbol
_atom_site_fract_x
_atom_site_fract_y
_atom_site_fract_z
C1    C     0.63808369003659 0.70244628912364 0.87796857976146 
C2    C     0.69103680992392 0.66589313997345 0.80211909984879 
C3    C     0.80644697012628 0.79506247022619 0.78126439986820 
C4    C     0.86627662992115 0.96253038935072 0.83618399973259 
C5    C     0.81416772996183 0.00483943066271 0.91464518993284 
C6    C     0.69800764998897 0.86903598981342 0.93624749024672 
C7    C     0.64777330042390 0.90255453874269 0.01541204993604 
C8    C     0.70841149008234 0.06591839017736 0.07059678029003 
C9    C     0.82195960041187 0.20510451894646 0.04876390982156 
C10   C     0.87350564031091 0.17543562067607 0.97246043980660 
H1    H     0.54977131973461 0.60020882958030 0.89444282013762 
H2    H     0.64515657010434 0.53074288091154 0.75844796994044 
H3    H     0.84813605957938 0.76108106906620 0.72152264008693 
H4    H     0.95451194022620 0.06660731118243 0.82015573009938 
H5    H     0.56033713976969 0.79532520100738 0.03203238024770 
H6    H     0.66889943002259 0.08776065993354 0.13125956012123 
H7    H     0.86853491034710 0.33911180110249 0.09223739028932 
H8    H     0.96125871024396 0.28016446919923 0.95568626012308 
