data_stdin
_audit_creation_method 'critic2'
_audit_creation_date 2023-8-11
_chemical_formula_sum 'C10 H8'
_cell_formula_units_Z 8
_cell_length_a         7.7385392812
_cell_length_b         7.7386118595
_cell_length_c        25.3327859200
_cell_angle_alpha        89.9959
_cell_angle_beta        90.0010
_cell_angle_gamma        89.9997
_cell_volume          1517.067861
_space_group_crystal_system tetragonal
_space_group_IT_number 92
_space_group_name_H-M_alt 'P4_12_12'
_space_group_name_Hall 'P 4abw 2nw'
loop_
_symmetry_equiv_pos_site_id
_symmetry_equiv_pos_as_xyz
 1 'x,y,z'
 2 '-1/2-y,-1/2+x,-3/4+z'
 3 '-x,-y,-1/2+z'
 4 '-1/2+y,-1/2-x,-1/4+z'
 5 '-1/2+x,-1/2-y,-1/4-z'
 6 '-y,-x,-1/2-z'
 7 '-1/2-x,-1/2+y,-3/4-z'
 8 'y,x,-z'
loop_
_atom_site_label
_atom_site_type_symbol
_atom_site_fract_x
_atom_site_fract_y
_atom_site_fract_z
C1    C     0.68984116937503 0.16423740942645 0.55028134015983 
C2    C     0.67498030958610 0.33625726038039 0.53688506008992 
C3    C     0.82313685977903 0.44322365014466 0.53499735010651 
C4    C     0.98385076003670 0.37609242049607 0.54659799007319 
C5    C     0.00375954005395 0.19941325968857 0.56033190012765 
C6    C     0.85324784059723 0.09114524979997 0.56233532984758 
C7    C     0.87298618985748 0.91475760007692 0.57621868999776 
C8    C     0.03418813001794 0.84715041014177 0.58669008014620 
C9    C     0.18284551987274 0.95310770027503 0.58417945015137 
C10   C     0.16756514945425 0.12573262060159 0.57150829017263 
H1    H     0.57602059944060 0.08146536028865 0.55187939006979 
H2    H     0.54842492016412 0.39125697038389 0.52846752985136 
H3    H     0.81042134043918 0.57907371938979 0.52447291981773 
H4    H     0.09828523064524 0.45807448944260 0.54483267017863 
H5    H     0.75827398975113 0.83349339994716 0.57907683003937 
H6    H     0.04719776014094 0.71139771052468 0.59709865998857 
H7    H     0.30930354977573 0.89700478981737 0.59210908984247 
H8    H     0.28154303018270 0.20812076958461 0.56935375001704 
