data_stdin
_audit_creation_method 'critic2'
_audit_creation_date 2023-8-11
_chemical_formula_sum 'C10 H8'
_cell_formula_units_Z 4
_cell_length_a        10.2193906645
_cell_length_b         5.8325963915
_cell_length_c        15.2974718932
_cell_angle_alpha        89.9812
_cell_angle_beta        50.4583
_cell_angle_gamma        89.9749
_cell_volume           703.156195
_space_group_crystal_system triclinic
_space_group_IT_number 2
_space_group_name_H-M_alt 'P-1'
_space_group_name_Hall '-P 1'
loop_
_symmetry_equiv_pos_site_id
_symmetry_equiv_pos_as_xyz
 1 'x,y,z'
 2 '-x,-y,-z'
loop_
_atom_site_label
_atom_site_type_symbol
_atom_site_fract_x
_atom_site_fract_y
_atom_site_fract_z
C1    C     0.72389023060560 0.17305089041245 0.74396719970887 
C2    C     0.27635732061679 0.67316861917879 0.75586678981971 
C3    C     0.79954000973386 0.02749137028978 0.77122841040065 
C4    C     0.20072322061142 0.52758630958926 0.72865888956888 
C5    C     0.87009686056790 0.81658930919567 0.71336864976253 
C6    C     0.13014613928503 0.31679085048042 0.78662084038997 
C7    C     0.86322260014402 0.75381809930022 0.62952940002741 
C8    C     0.13699896047234 0.25413528072415 0.87049763961610 
C9    C     0.78555655968663 0.89866587080213 0.59964032981014 
C10   C     0.21464473004523 0.39900592969171 0.90033727012246 
C11   C     0.71485388994077 0.11319125938670 0.65791210968147 
C12   C     0.28534309022501 0.61344525044841 0.84197535010167 
C13   C     0.63423385035455 0.25669488939638 0.62985000966669 
C14   C     0.36589858951193 0.75700256029404 0.87001133025903 
C15   C     0.62271565947989 0.19087103012776 0.54836222040856 
C16   C     0.37736285067894 0.69131723079464 0.95155856969306 
C17   C     0.69297951989251 0.97991957064486 0.49050994016774 
C18   C     0.30712995035043 0.48043493987368 0.00948286995312 
C19   C     0.77313753984794 0.83745596978663 0.51537228971951 
C20   C     0.22703274997012 0.33791762056244 0.98464921975580 
H1    H     0.66783741933005 0.33480458018892 0.78876119047362 
H2    H     0.33241878936991 0.83484224084369 0.71099688025797 
H3    H     0.80439371988033 0.07462370075732 0.83799816035932 
H4    H     0.19591881038183 0.57458618051682 0.66184208017000 
H5    H     0.92987564032500 0.70395627935500 0.73563194995836 
H6    H     0.07036668056425 0.20413424919224 0.76441196986225 
H7    H     0.91614912953867 0.59058236079132 0.58579412016168 
H8    H     0.08412282989171 0.09093372029724 0.91427802974101 
H9    H     0.57974272049233 0.41852508941997 0.67458164994575 
H10   H     0.42039226991642 0.91876657004513 0.82521513019545 
H11   H     0.55822934976292 0.30154581953286 0.52900416009776 
H12   H     0.44178230001146 0.80207742971917 0.97087661993502 
H13   H     0.68346755948564 0.93037822038930 0.42612039037881 
H14   H     0.31662301028213 0.43096664065991 0.07390285961775 
H15   H     0.82746777002347 0.67498825025263 0.47099844034512 
H16   H     0.17275587977069 0.17550339081640 0.02908248007376 
