data_stdin
_audit_creation_method 'critic2'
_audit_creation_date 2023-8-11
_chemical_formula_sum 'C10 H8'
_cell_formula_units_Z 8
_cell_length_a         9.2135723853
_cell_length_b        12.4881714374
_cell_length_c        13.0767116947
_cell_angle_alpha        89.9973
_cell_angle_beta        82.6058
_cell_angle_gamma        90.0013
_cell_volume          1492.103194
_space_group_crystal_system monoclinic
_space_group_IT_number 15
_space_group_name_H-M_alt 'C2/c'
_space_group_name_Hall '-C 2yc'
loop_
_symmetry_equiv_pos_site_id
_symmetry_equiv_pos_as_xyz
 1 'x,y,z'
 2 '-1/2-x,-1/2-y,-z'
 3 '-x,y,-1/2-z'
 4 '-1/2+x,-1/2-y,-1/2+z'
 5 '-1/2+x,-1/2+y,z'
 6 '-x,-y,-z'
 7 '-1/2-x,-1/2+y,-1/2-z'
 8 'x,-y,-1/2+z'
loop_
_atom_site_label
_atom_site_type_symbol
_atom_site_fract_x
_atom_site_fract_y
_atom_site_fract_z
C1    C     0.07230626979525 0.46060381023992 0.61962415998105 
C2    C     0.18365603971237 0.50829316009474 0.66411772003406 
C3    C     0.29459234032617 0.44511779034984 0.69947481013972 
C4    C     0.29351222989122 0.33537237012850 0.68815389976693 
C5    C     0.18229306958898 0.28400851032205 0.64064282008067 
C6    C     0.06853405960694 0.34794442003403 0.60634219037024 
C7    C     0.95751481965239 0.29658043001934 0.55843672985352 
C8    C     0.95961871960239 0.18726562013650 0.54375794026203 
C9    C     0.07237744044373 0.12430196977310 0.57694870969511 
C10   C     0.18105713962054 0.17174977999625 0.62433238020786 
H1    H     0.98533173990144 0.50889717039566 0.59405591979339 
H2    H     0.18648639002331 0.59497559967390 0.67297461984402 
H3    H     0.38080697015726 0.48425877998721 0.73524104996491 
H4    H     0.37934688054077 0.28643450988196 0.71457458980873 
H5    H     0.87127978967432 0.34553117977777 0.53263841970276 
H6    H     0.87481112978988 0.14880214990708 0.50590427006559 
H7    H     0.07373574052565 0.03821715023090 0.56386604004358 
H8    H     0.26888913028433 0.12358207988895 0.64882631026531 
