data_stdin
_audit_creation_method 'critic2'
_audit_creation_date 2023-8-11
_chemical_formula_sum 'C10 H8'
_cell_formula_units_Z 16
_cell_length_a         7.2982031233
_cell_length_b        57.4381155518
_cell_length_c         7.4093479132
_cell_angle_alpha        90.0016
_cell_angle_beta        89.9999
_cell_angle_gamma        90.0013
_cell_volume          3105.961851
_space_group_crystal_system orthorhombic
_space_group_IT_number 43
_space_group_name_H-M_alt 'Fdd2'
_space_group_name_Hall 'F 2 -2d'
loop_
_symmetry_equiv_pos_site_id
_symmetry_equiv_pos_as_xyz
 1 'x,y,z'
 2 '-x,-y,z'
 3 '-3/4-x,-1/4+y,-1/4+z'
 4 '-3/4+x,-1/4-y,-1/4+z'
 5 '-1/2+x,-1/2+y,z'
 6 '-1/2-x,-1/2-y,z'
 7 '-1/4-x,-3/4+y,-1/4+z'
 8 '-1/4+x,-3/4-y,-1/4+z'
 9 '-1/2+x,y,-1/2+z'
 10 '-1/2-x,-y,-1/2+z'
 11 '-1/4-x,-1/4+y,-3/4+z'
 12 '-1/4+x,-1/4-y,-3/4+z'
 13 'x,-1/2+y,-1/2+z'
 14 '-x,-1/2-y,-1/2+z'
 15 '-3/4-x,-3/4+y,-3/4+z'
 16 '-3/4+x,-3/4-y,-3/4+z'
loop_
_atom_site_label
_atom_site_type_symbol
_atom_site_fract_x
_atom_site_fract_y
_atom_site_fract_z
C1    C     0.48485238785287 0.57702163288867 0.48962463718718 
C2    C     0.53843922522276 0.59691603174829 0.39995873897568 
C3    C     0.72668169353647 0.60141401861320 0.36980692315722 
C4    C     0.85804923258735 0.58612717542519 0.43197410094814 
C5    C     0.80714896601011 0.56562350213281 0.52644519834398 
C6    C     0.61622617075630 0.56086860744317 0.55492704325763 
C7    C     0.56546167716886 0.54023726596190 0.64806517588425 
C8    C     0.69709590362669 0.52516473100632 0.71309393731405 
C9    C     0.88531158353451 0.53004961022237 0.68681932851909 
C10   C     0.93877846551133 0.54974351562957 0.59471815376358 
H1    H     0.34010682100700 0.57340496122544 0.51127964854277 
H2    H     0.43636202614582 0.60914090464222 0.34979133185971 
H3    H     0.76717393181979 0.61702705385229 0.29652640983398 
H4    H     0.00298943445675 0.58944862714345 0.40760688798945 
H5    H     0.42046730274399 0.53666269094445 0.66965854325413 
H6    H     0.65674755602144 0.50961300292132 0.78741257348814 
H7    H     0.98859493944918 0.51842008666542 0.74222435137208 
H8    H     0.08356391938546 0.55349604799883 0.57482916658922 
