data_stdin
_audit_creation_method 'critic2'
_audit_creation_date 2023-8-11
_chemical_formula_sum 'C10 H8'
_cell_formula_units_Z 4
_cell_length_a         3.9422738840
_cell_length_b         5.9676352718
_cell_length_c        31.6381109234
_cell_angle_alpha        79.2594
_cell_angle_beta       102.7377
_cell_angle_gamma        89.9472
_cell_volume           712.597351
_space_group_crystal_system triclinic
_space_group_IT_number 2
_space_group_name_H-M_alt 'P-1'
_space_group_name_Hall '-P 1'
loop_
_symmetry_equiv_pos_site_id
_symmetry_equiv_pos_as_xyz
 1 'x,y,z'
 2 '-x,-y,-z'
loop_
_atom_site_label
_atom_site_type_symbol
_atom_site_fract_x
_atom_site_fract_y
_atom_site_fract_z
C1    C     0.58919600094943 0.55934517991593 0.90057777003984 
C2    C     0.39998416910066 0.36123108044040 0.59908702991427 
C3    C     0.64850940877932 0.58631323948635 0.94388450002311 
C4    C     0.34521921885391 0.47564303086666 0.55593317983449 
C5    C     0.79470854990809 0.78767092008227 0.95611332008400 
C6    C     0.20010482054992 0.70159900059179 0.54386862999757 
C7    C     0.88204459019380 0.95767606990204 0.92489172013441 
C8    C     0.10932874004571 0.80850086068183 0.57508326991316 
C9    C     0.82484353084569 0.93482871045788 0.88003488991894 
C10   C     0.16204107147073 0.69515417056467 0.61978445011050 
C11   C     0.67399968098954 0.73143219007408 0.86756616990115 
C12   C     0.31162834927295 0.46662278929289 0.63209161987978 
C13   C     0.61490233011933 0.70914914055594 0.82267450005785 
C14   C     0.36624963132688 0.35374039019599 0.67682945002845 
C15   C     0.70265651067829 0.87909054034233 0.79148016997189 
C16   C     0.27535066873652 0.46068555086718 0.70802563994606 
C17   C     0.85240966034801 0.07929750958383 0.80378024996761 
C18   C     0.12674892038224 0.68568366999809 0.69588733989272 
C19   C     0.91146159987270 0.10647179055361 0.84708201991289 
C20   C     0.07208165046259 0.80024586985639 0.65273662007534 
H1    H     0.47753838088822 0.40415862929587 0.89119081989121 
H2    H     0.51098796124223 0.18719936935149 0.60835819003359 
H3    H     0.58234561070125 0.45253691995343 0.96883802005356 
H4    H     0.41454417959779 0.39242127062421 0.53099311983402 
H5    H     0.83932240909223 0.80716607041133 0.99043503002938 
H6    H     0.15916601992625 0.79038119952825 0.50967332993779 
H7    H     0.99733229919718 0.11239917989276 0.93413785009397 
H8    H     0.99492852089099 0.98186700926774 0.56595396009652 
H9    H     0.49789131039174 0.55518434958898 0.81327989985097 
H10   H     0.48232206012469 0.18082253979488 0.68610570006146 
H11   H     0.65435015973910 0.85963027920859 0.75714634014568 
H12   H     0.31996646894464 0.37181856948850 0.74223195006541 
H13   H     0.92154286056564 0.21180132942264 0.77883897012752 
H14   H     0.05472602118705 0.76769506053886 0.72082230002547 
H15   H     0.02442130122643 0.26126220956707 0.85650170006980 
H16   H     0.95979792964453 0.97395735920218 0.64342614005529 
