data_stdin
_audit_creation_method 'critic2'
_audit_creation_date 2023-8-11
_chemical_formula_sum 'C10 H8'
_cell_formula_units_Z 4
_cell_length_a        12.1760594522
_cell_length_b        11.6546437700
_cell_length_c         5.1740314602
_cell_angle_alpha        89.9962
_cell_angle_beta        89.9866
_cell_angle_gamma        90.0000
_cell_volume           734.234549
_space_group_crystal_system orthorhombic
_space_group_IT_number 18
_space_group_name_H-M_alt 'P2_12_12'
_space_group_name_Hall 'P 2 2ab'
loop_
_symmetry_equiv_pos_site_id
_symmetry_equiv_pos_as_xyz
 1 'x,y,z'
 2 '-x,-y,z'
 3 '-1/2-x,-1/2+y,-z'
 4 '-1/2+x,-1/2-y,-z'
loop_
_atom_site_label
_atom_site_type_symbol
_atom_site_fract_x
_atom_site_fract_y
_atom_site_fract_z
C1    C     0.67446785226244 0.17550038522174 0.91234332749335 
C2    C     0.60352148100353 0.23523460285452 0.07051701371323 
C3    C     0.60345449803650 0.35663855623809 0.06903404143161 
C4    C     0.67414148339307 0.41624968051442 0.90975055212844 
C5    C     0.75012017282109 0.35722856141432 0.74922172192076 
C6    C     0.75010852271101 0.23403137475990 0.75033498049627 
C7    C     0.82576094856190 0.17491276861920 0.58944928665762 
C8    C     0.89673160790817 0.23408181605371 0.43024074856608 
C9    C     0.89683727993726 0.35549044064921 0.42955216655310 
C10   C     0.82613182787140 0.41567088701205 0.58769794978924 
H1    H     0.67356379558231 0.08201706425134 0.91003277191243 
H2    H     0.54600362465887 0.18973669623852 0.19479891056861 
H3    H     0.54620819990317 0.40232838024133 0.19376427156059 
H4    H     0.67269371262159 0.50969136865470 0.90536470309263 
H5    H     0.82659184406173 0.08143810390704 0.59334870505122 
H6    H     0.95408392975780 0.18813435653538 0.30637083187003 
H7    H     0.95393204071810 0.40073081641956 0.30361734013240 
H8    H     0.82764196419631 0.50912630940398 0.59051964850697 
