data_stdin
_audit_creation_method 'critic2'
_audit_creation_date 2023-8-11
_chemical_formula_sum 'C10 H8'
_cell_formula_units_Z 4
_cell_length_a         6.7978710413
_cell_length_b        15.2343329202
_cell_length_c         7.1571539901
_cell_angle_alpha        90.0003
_cell_angle_beta        90.0000
_cell_angle_gamma        90.0008
_cell_volume           741.202243
_space_group_crystal_system orthorhombic
_space_group_IT_number 19
_space_group_name_H-M_alt 'P2_12_12_1'
_space_group_name_Hall 'P 2ac 2ab'
loop_
_symmetry_equiv_pos_site_id
_symmetry_equiv_pos_as_xyz
 1 'x,y,z'
 2 '-x,-1/2+y,-1/2-z'
 3 '-1/2+x,-1/2-y,-z'
 4 '-1/2-x,-y,-1/2+z'
loop_
_atom_site_label
_atom_site_type_symbol
_atom_site_fract_x
_atom_site_fract_y
_atom_site_fract_z
C1    C     0.64156994785727 0.73376596223211 0.30377092543117 
C2    C     0.82021961217574 0.77350198662453 0.26864346849678 
C3    C     0.96470759782891 0.73047422019259 0.15954812371601 
C4    C     0.92775510165074 0.64837872601857 0.08623659346512 
C5    C     0.74539092625915 0.60570460999043 0.11909296396125 
C6    C     0.59902823630157 0.64928387671215 0.23017871188964 
C7    C     0.41574307969332 0.60687677794788 0.25983928568476 
C8    C     0.37826116753046 0.52516008779757 0.18444897397875 
C9    C     0.52314741557987 0.48217233810932 0.07573663618172 
C10   C     0.70271768485552 0.52161418347043 0.04402211671988 
H1    H     0.52935629164856 0.76677619180521 0.38676381064101 
H2    H     0.85171332673624 0.83857286854037 0.32405434069321 
H3    H     0.10466974793415 0.76273234924340 0.13236188835988 
H4    H     0.03809782658822 0.61549039224778 0.00100573361455 
H5    H     0.30337328922426 0.64060237583227 0.34106966328719 
H6    H     0.23631916780369 0.49399370895306 0.20887990786179 
H7    H     0.49347162581122 0.41772497142490 0.01620505493913 
H8    H     0.81436021842254 0.48870030637079 0.96057396680470 
