data_stdin
_audit_creation_method 'critic2'
_audit_creation_date 2023-8-11
_chemical_formula_sum 'C10 H8'
_cell_formula_units_Z 2
_cell_length_a        10.1310779824
_cell_length_b         5.9067644200
_cell_length_c         5.8732550445
_cell_angle_alpha        90.0001
_cell_angle_beta        78.6267
_cell_angle_gamma        90.0002
_cell_volume           344.565009
_space_group_crystal_system triclinic
_space_group_IT_number 1
_space_group_name_H-M_alt 'P 1'
_space_group_name_Hall 'P 1'
loop_
_symmetry_equiv_pos_site_id
_symmetry_equiv_pos_as_xyz
 1 'x,y,z'
loop_
_atom_site_label
_atom_site_type_symbol
_atom_site_fract_x
_atom_site_fract_y
_atom_site_fract_z
C1    C     0.73700300036174 0.01748955038474 0.48831539032078 
C2    C     0.26299707992530 0.51748944916704 0.51168425006615 
C3    C     0.83547800999625 0.17777563926615 0.49193860066241 
C4    C     0.16452185042560 0.67777584047260 0.50806118932453 
C5    C     0.91219833986694 0.17461929923365 0.66874504081143 
C6    C     0.08780134984493 0.67461980923905 0.33125499050415 
C7    C     0.88902382041716 0.01075130079933 0.83925784953498 
C8    C     0.11097586985944 0.51075171015019 0.16074246021820 
C9    C     0.78897810973396 0.84213807965383 0.83972359945367 
C10   C     0.21102177020813 0.34213827074781 0.16027656913668 
C11   C     0.71102651027521 0.84557011068051 0.66027290932140 
C12   C     0.28897361030771 0.34556990942548 0.33972692030617 
C13   C     0.61097774996064 0.67696115075056 0.66074263983208 
C14   C     0.38902256009178 0.17696073970474 0.33925705037296 
C15   C     0.58780583018466 0.51308844076902 0.83125045998697 
C16   C     0.41219448020809 0.01308792060362 0.16874951038825 
C17   C     0.66452608015166 0.50993208042089 0.00805730068137 
C18   C     0.33547406958854 0.00993187921216 0.99194290947843 
C19   C     0.76299856959876 0.67022227984324 0.01168376041877 
C20   C     0.23700135044125 0.17022237936670 0.98831659915198 
H1    H     0.67869906002495 0.01960227056617 0.35110784074976 
H2    H     0.32130117044738 0.51960199991662 0.64889156926028 
H3    H     0.85469332009032 0.30868788078668 0.35925985068203 
H4    H     0.14530652956704 0.80868809033745 0.64073981020716 
H5    H     0.98903947041635 0.30361872010019 0.66804068042075 
H6    H     0.01096005973188 0.80361944024591 0.33195942973101 
H7    H     0.94691677027804 0.00880474941936 0.97728037081753 
H8    H     0.05308279950481 0.50880524017956 0.02272014043326 
H9    H     0.55307334029122 0.67892743035742 0.52273634084380 
H10   H     0.44692708025990 0.17892693959908 0.47726314942462 
H11   H     0.51096240994755 0.38409229072809 0.83195718999129 
H12   H     0.48903807007668 0.88409157058145 0.16804270000652 
H13   H     0.64530801968761 0.37902435067634 0.14074029995584 
H14   H     0.35469212978906 0.87902412927320 0.85926004083037 
H15   H     0.82128264999865 0.66813322066662 0.14892009969422 
H16   H     0.17871712020300 0.16813347947040 0.85108047983471 
