data_stdin
_audit_creation_method 'critic2'
_audit_creation_date 2023-8-11
_chemical_formula_sum 'C10 H8'
_cell_formula_units_Z 8
_cell_length_a        13.0273851400
_cell_length_b         9.9351473500
_cell_length_c        11.7313880400
_cell_angle_alpha        90.0000
_cell_angle_beta        90.0000
_cell_angle_gamma        90.0000
_cell_volume          1518.381716
_space_group_crystal_system orthorhombic
_space_group_IT_number 61
_space_group_name_H-M_alt 'Pbca'
_space_group_name_Hall '-P 2ac 2ab'
loop_
_symmetry_equiv_pos_site_id
_symmetry_equiv_pos_as_xyz
 1 'x,y,z'
 2 '-x,-y,-z'
 3 '-1/2+x,-1/2-y,-z'
 4 '-1/2-x,-1/2+y,z'
 5 '-x,-1/2+y,-1/2-z'
 6 'x,-1/2-y,-1/2+z'
 7 '-1/2-x,-y,-1/2+z'
 8 '-1/2+x,y,-1/2-z'
loop_
_atom_site_label
_atom_site_type_symbol
_atom_site_fract_x
_atom_site_fract_y
_atom_site_fract_z
C1    C     0.22227864592461 0.65231472329658 0.65747578840005 
C2    C     0.22579757817162 0.74574615901099 0.57064801703052 
C3    C     0.31789673559828 0.76829338862369 0.50968905994667 
C4    C     0.40537998460415 0.69710896451818 0.53709293818209 
C5    C     0.40501223273429 0.60153935363927 0.62710617744862 
C6    C     0.31128859503774 0.57864392194453 0.68876746925766 
C7    C     0.31162391948281 0.48463083035129 0.77997372577690 
C8    C     0.40016266355553 0.41716768846883 0.80979782370505 
C9    C     0.49219661854960 0.43841897357724 0.74839133484722 
C10   C     0.49424248840779 0.52849432251985 0.65883635026865 
H1    H     0.15116458426262 0.63566766695576 0.70414744068941 
H2    H     0.15774191737471 0.80482501493813 0.55046801109036 
H3    H     0.32027178393382 0.84277666018368 0.44172808382962 
H4    H     0.47612842106366 0.71432368539581 0.48977959794966 
H5    H     0.24070412813545 0.46563481235376 0.82664044615347 
H6    H     0.39913218125103 0.34671572868273 0.88079757288287 
H7    H     0.56108351592528 0.38312711999754 0.77246594697323 
H8    H     0.56468744823237 0.54460986201456 0.61056210422607 
