data_stdin
_audit_creation_method 'critic2'
_audit_creation_date 2023-8-11
_chemical_formula_sum 'C10 H8'
_cell_formula_units_Z 8
_cell_length_a         7.0226017908
_cell_length_b        26.1254671803
_cell_length_c         8.0129599210
_cell_angle_alpha        90.0006
_cell_angle_beta        89.9990
_cell_angle_gamma        90.0005
_cell_volume          1470.127761
_space_group_crystal_system orthorhombic
_space_group_IT_number 56
_space_group_name_H-M_alt 'Pccn'
_space_group_name_Hall '-P 2ab 2ac'
loop_
_symmetry_equiv_pos_site_id
_symmetry_equiv_pos_as_xyz
 1 'x,y,z'
 2 '-x,-y,-z'
 3 '-1/2-x,-1/2-y,z'
 4 '-1/2+x,-1/2+y,-z'
 5 '-1/2+x,-y,-1/2-z'
 6 '-1/2-x,y,-1/2+z'
 7 '-x,-1/2+y,-1/2-z'
 8 'x,-1/2-y,-1/2+z'
loop_
_atom_site_label
_atom_site_type_symbol
_atom_site_fract_x
_atom_site_fract_y
_atom_site_fract_z
C1    C     0.62973310972672 0.63476884001924 0.94092784981172 
C2    C     0.60621220990316 0.68667901984103 0.91714971004509 
C3    C     0.50355186963446 0.71621178016796 0.03504720958654 
C4    C     0.42479962982528 0.69316981010328 0.17381304957643 
C5    C     0.44785089992169 0.63991683002300 0.20269260021742 
C6    C     0.55331425958828 0.61014203991225 0.08389936955605 
C7    C     0.57745404979848 0.55694191983308 0.11331381948186 
C8    C     0.50019161956146 0.53403894996710 0.25307078940998 
C9    C     0.39626631068070 0.56354725989184 0.37015201061461 
C10   C     0.37113531975469 0.61535859005435 0.34555582989270 
H1    H     0.70720236981364 0.61193761016212 0.84988784006662 
H2    H     0.66680414024024 0.70496611001355 0.80715309059459 
H3    H     0.48726215983342 0.75726801996500 0.01610855952129 
H4    H     0.34380282945844 0.71543403994984 0.26414593960261 
H5    H     0.65760755932022 0.53451671006903 0.02277591983188 
H6    H     0.51863916985537 0.49307325991452 0.27292051059082 
H7    H     0.33537713984505 0.54543632982441 0.48029057059616 
H8    H     0.29254001939077 0.63812049996898 0.43605307994817 
