data_stdin
_audit_creation_method 'critic2'
_audit_creation_date 2023-8-11
_chemical_formula_sum 'C10 H8'
_cell_formula_units_Z 8
_cell_length_a        10.1795713100
_cell_length_b        10.1799910200
_cell_length_c        14.5199323600
_cell_angle_alpha        90.0000
_cell_angle_beta        90.0000
_cell_angle_gamma        90.0000
_cell_volume          1504.670745
_space_group_crystal_system tetragonal
_space_group_IT_number 92
_space_group_name_H-M_alt 'P4_12_12'
_space_group_name_Hall 'P 4abw 2nw'
loop_
_symmetry_equiv_pos_site_id
_symmetry_equiv_pos_as_xyz
 1 'x,y,z'
 2 '-1/2-y,-1/2+x,-3/4+z'
 3 '-x,-y,-1/2+z'
 4 '-1/2+y,-1/2-x,-1/4+z'
 5 '-1/2+x,-1/2-y,-1/4-z'
 6 '-y,-x,-1/2-z'
 7 '-1/2-x,-1/2+y,-3/4-z'
 8 'y,x,-z'
loop_
_atom_site_label
_atom_site_type_symbol
_atom_site_fract_x
_atom_site_fract_y
_atom_site_fract_z
C1    C     0.43663592888185 0.76652889690784 0.29607581259300 
C2    C     0.42258233600937 0.85425623989821 0.22438401588941 
C3    C     0.51502047268228 0.85668022048640 0.15160597089172 
C4    C     0.62147004315763 0.77275183878157 0.15235235497973 
C5    C     0.63887940003086 0.68121047090473 0.22510882504492 
C6    C     0.54359697558582 0.67720953606489 0.29801141888101 
C7    C     0.55757384129284 0.58171438850486 0.36849855921179 
C8    C     0.66170897545283 0.49512183738370 0.36833699076577 
C9    C     0.75683121718522 0.50065629825470 0.29739852166919 
C10   C     0.74528995693208 0.59120499453445 0.22725319350367 
H1    H     0.36408940127977 0.76337087247714 0.35120722657967 
H2    H     0.33877089168006 0.92054930359274 0.22274186636289 
H3    H     0.50017235201895 0.92470436920478 0.09467831525015 
H4    H     0.69308466515683 0.77530842550159 0.09654069840449 
H5    H     0.48263404012676 0.57647613029215 0.42195884076149 
H6    H     0.67041321772385 0.42132572165880 0.42230577700369 
H7    H     0.83960639497004 0.43281967712216 0.29779440610904 
H8    H     0.81719188373410 0.59301157668394 0.17173822496156 
