data_stdin
_audit_creation_method 'critic2'
_audit_creation_date 2023-8-11
_chemical_formula_sum 'C10 H8'
_cell_formula_units_Z 4
_cell_length_a         7.3593247780
_cell_length_b         6.4605038100
_cell_length_c        17.3222922610
_cell_angle_alpha        90.0000
_cell_angle_beta        68.6574
_cell_angle_gamma        90.0000
_cell_volume           767.106437
_space_group_crystal_system monoclinic
_space_group_IT_number 11
_space_group_name_H-M_alt 'P2_1/m'
_space_group_name_Hall '-P 2yb'
loop_
_symmetry_equiv_pos_site_id
_symmetry_equiv_pos_as_xyz
 1 'x,y,z'
 2 '-x,-y,-z'
 3 '-x,-1/2+y,-z'
 4 'x,-1/2-y,z'
 5 'x,y,-1/2+z'
 6 '-x,-y,-1/2-z'
 7 '-x,-1/2+y,-1/2-z'
 8 'x,-1/2-y,-1/2+z'
loop_
_atom_site_label
_atom_site_type_symbol
_atom_site_fract_x
_atom_site_fract_y
_atom_site_fract_z
C1    C     0.55474400046053 0.25000733031067 0.40364415991118 
C2    C     0.57621150007537 0.25000735043294 0.32126261974400 
C3    C     0.41019890997182 0.25001159004037 0.29823529004758 
C4    C     0.22548396960485 0.25001313016794 0.35830250009608 
C5    C     0.19834087971042 0.25001404031368 0.44378479006546 
C6    C     0.36661034042324 0.25001263020693 0.46703678985235 
C7    C     0.33960970955127 0.25000568028455 0.55245302990767 
C8    C     0.15448154979183 0.24999966991738 0.61240673996766 
C9    C     0.98874109058718 0.25000251954035 0.58942316970934 
C10   C     0.01054970978237 0.25001089969174 0.50698727023466 
H1    H     0.68233671015114 0.25000116051321 0.42129713978676 
H2    H     0.72156318034978 0.25002181989271 0.27346415000713 
H3    H     0.42955343957999 0.25003397993507 0.23285336977120 
H4    H     0.09683084047954 0.25001793939040 0.34118031008801 
H5    H     0.46771271001297 0.25000407050298 0.56986846976819 
H6    H     0.13589834014145 0.24999300015891 0.67776931019640 
H7    H     0.84303575022934 0.25000420981100 0.63684828009591 
H8    H     0.88281388075281 0.25001198010283 0.48940958981174 
