data_stdin
_audit_creation_method 'critic2'
_audit_creation_date 2023-8-11
_chemical_formula_sum 'C10 H8'
_cell_formula_units_Z 32
_cell_length_a        59.3807873228
_cell_length_b        13.5765375106
_cell_length_c         7.8782627303
_cell_angle_alpha        90.0000
_cell_angle_beta        89.9589
_cell_angle_gamma        89.9946
_cell_volume          6351.339408
_space_group_crystal_system monoclinic
_space_group_IT_number 15
_space_group_name_H-M_alt 'C2/c'
_space_group_name_Hall '-C 2yc'
loop_
_symmetry_equiv_pos_site_id
_symmetry_equiv_pos_as_xyz
 1 'x,y,z'
 2 '-1/2-x,-y,-1/2-z'
 3 '-3/4-x,y,-3/4-z'
 4 '-3/4+x,-y,-3/4+z'
 5 '-1/2+x,y,-1/2+z'
 6 '-x,-y,-z'
 7 '-1/4-x,y,-1/4-z'
 8 '-1/4+x,-y,-1/4+z'
 9 'x,-1/2+y,-1/2+z'
 10 '-1/2-x,-1/2-y,-z'
 11 '-3/4-x,-1/2+y,-1/4-z'
 12 '-3/4+x,-1/2-y,-1/4+z'
 13 '-1/2+x,-1/2+y,z'
 14 '-x,-1/2-y,-1/2-z'
 15 '-1/4-x,-1/2+y,-3/4-z'
 16 '-1/4+x,-1/2-y,-3/4+z'
loop_
_atom_site_label
_atom_site_type_symbol
_atom_site_fract_x
_atom_site_fract_y
_atom_site_fract_z
C1    C     0.56679693008191 0.74010216998209 0.74144288001687 
C2    C     0.56675416001504 0.51016209974584 0.50903536019908 
C3    C     0.58986558000664 0.73463121018278 0.72434709936996 
C4    C     0.58982491997826 0.51520480997029 0.52610080033767 
C5    C     0.60388085999992 0.73565597969916 0.86939131959590 
C6    C     0.60386396001729 0.51387731990179 0.38104629971452 
C7    C     0.59458671992261 0.74294324986027 0.02931687991076 
C8    C     0.59459003000560 0.50672810969304 0.22113485034916 
C9    C     0.57094545003646 0.74997964032787 0.05117608970231 
C10   C     0.57094632995950 0.50012850969679 0.19930685059229 
C11   C     0.55671885996212 0.74806164998134 0.90401735053313 
C12   C     0.55669669006158 0.50234884022018 0.34647657050675 
C13   C     0.53307111997662 0.75585448005547 0.92600805004120 
C14   C     0.53304563999353 0.49499279031718 0.32450956061015 
C15   C     0.52385144993635 0.76638299031600 0.08560841975515 
C16   C     0.52384407999184 0.48460644031660 0.16492438024437 
C17   C     0.53791298994129 0.76850884978869 0.23057374971083 
C18   C     0.53792859003972 0.48217262027717 0.01995115059903 
C19   C     0.56092849993121 0.75992569009555 0.21368003051600 
C20   C     0.56094864006549 0.49032089994552 0.03681836002701 
H1    H     0.55599589995749 0.73910215986036 0.62969422973329 
H2    H     0.55593614996589 0.51139024964157 0.62079791975059 
H3    H     0.59736468995312 0.72896411967625 0.59862027040018 
H4    H     0.59730779004188 0.52076637013414 0.65181632038703 
H5    H     0.62208215002756 0.73091710011809 0.85403574011141 
H6    H     0.62206703008084 0.51826047976349 0.39638403006141 
H7    H     0.60527127992906 0.74400551030689 0.14159879023016 
H8    H     0.60529188999984 0.50543581010806 0.10883922937054 
H9    H     0.52233352992396 0.75489427001767 0.81383600995548 
H10   H     0.52228938008334 0.49618542017777 0.43668823005106 
H11   H     0.50570596005170 0.77390867015292 0.10068301052076 
H12   H     0.50569424004729 0.47743863012500 0.14988026968555 
H13   H     0.53052233997969 0.77731641984009 0.35621744980255 
H14   H     0.53055377001852 0.47347457989411 0.89431414033555 
H15   H     0.57175465992172 0.76122337031435 0.32532659942016 
H16   H     0.57179192007994 0.48878897967236 0.92516030032070 
