data_stdin
_audit_creation_method 'critic2'
_audit_creation_date 2023-8-11
_chemical_formula_sum 'C10 H8'
_cell_formula_units_Z 8
_cell_length_a        29.8607251766
_cell_length_b         5.9397830998
_cell_length_c         8.1726061552
_cell_angle_alpha        90.0001
_cell_angle_beta        90.0472
_cell_angle_gamma        89.9924
_cell_volume          1449.543844
_space_group_crystal_system monoclinic
_space_group_IT_number 7
_space_group_name_H-M_alt 'Pc'
_space_group_name_Hall 'P -2yc'
loop_
_symmetry_equiv_pos_site_id
_symmetry_equiv_pos_as_xyz
 1 'x,y,z'
 2 '-1/2+x,-1/2-y,z'
loop_
_atom_site_label
_atom_site_type_symbol
_atom_site_fract_x
_atom_site_fract_y
_atom_site_fract_z
C1    C     0.10825625987766 0.50157399958251 0.01273813959822 
C2    C     0.60824634013272 0.00156349954175 0.51256063017503 
C3    C     0.89179187001025 0.49863982937558 0.01264027055845 
C4    C     0.39175807004053 0.99852857936531 0.51265010030244 
C5    C     0.06512546993648 0.44780508011475 0.05881920055197 
C6    C     0.56506796015733 0.94809353022048 0.55824289977229 
C7    C     0.93490479007401 0.55256646059914 0.05910378961091 
C8    C     0.43486265994913 0.05251640002140 0.55918532940106 
C9    C     0.04525734998161 0.24376645075133 0.00611324013000 
C10   C     0.54518457006519 0.74414481947032 0.50537545048298 
C11   C     0.95475202014048 0.75669975992566 0.00659659001803 
C12   C     0.45470681010778 0.25666515061787 0.50667764025175 
C13   C     0.06896537002269 0.09560568072941 0.90917348007618 
C14   C     0.56893310004777 0.59576928992017 0.40875829048056 
C15   C     0.93104230987053 0.90477599049369 0.90945670972352 
C16   C     0.43100180985616 0.40466740957306 0.40947777057458 
C17   C     0.11365103012934 0.14465325917253 0.86162157991443 
C18   C     0.61365387993583 0.64458627071345 0.36154265034750 
C19   C     0.88637285004956 0.85558169001844 0.86152597953106 
C20   C     0.38633969992709 0.35542331048434 0.36149340044209 
C21   C     0.13368340010791 0.35208966930178 0.91424174948371 
C22   C     0.63369928997080 0.85194010059251 0.41427227998353 
C23   C     0.86636035993430 0.64806846075447 0.91396157948406 
C24   C     0.36632899005965 0.14791550929784 0.41393273981590 
C25   C     0.17847626983511 0.40020275964411 0.86741098991023 
C26   C     0.67850824007371 0.89993848033382 0.36756530034930 
C27   C     0.82157698986348 0.59985275010220 0.86680665984776 
C28   C     0.32154292993591 0.09971653957505 0.36678678050997 
C29   C     0.20218555986406 0.25141426953260 0.77084282985039 
C30   C     0.70221104989432 0.75117242947926 0.27095912031463 
C31   C     0.79785960984973 0.74862398926534 0.77011240979337 
C32   C     0.29782876993725 0.24849171035699 0.27008887939739 
C33   C     0.18213842008386 0.04836912980536 0.71710971038438 
C34   C     0.68215088001283 0.54820521998928 0.21712903006049 
C35   C     0.81788738998379 0.95174695055511 0.71656107950779 
C36   C     0.31786095005224 0.45159104018687 0.21649885046815 
C37   C     0.13896537005066 0.99518754042315 0.76288958011879 
C38   C     0.63897219988115 0.49507971938646 0.26285693945610 
C39   C     0.86105130987738 0.00501920078667 0.76264649000280 
C40   C     0.36102468003689 0.50485057948928 0.26258227012874 
H1    H     0.12346194003160 0.65871235027353 0.05274998939799 
H2    H     0.62345716002625 0.15863478952835 0.55269038008580 
H3    H     0.87660064010514 0.34143642936609 0.05250362050232 
H4    H     0.37657359991840 0.84131257049892 0.55252095978272 
H5    H     0.04661986991434 0.56166015038056 0.13839242007227 
H6    H     0.54653846012068 0.06210574921935 0.63762157948363 
H7    H     0.95341295988437 0.43877167049356 0.13882831980604 
H8    H     0.45336017992560 0.93873661046128 0.63895708029331 
H9    H     0.01114498000691 0.20396415082923 0.04322261057172 
H10   H     0.51102677988216 0.70458616996757 0.54214470975326 
H11   H     0.98884717001962 0.79665756975558 0.04402733988729 
H12   H     0.48879590015952 0.29667612976158 0.54415380998431 
H13   H     0.05405623008987 0.93783209071237 0.86827224008160 
H14   H     0.55402473000409 0.43801441959216 0.36782650950062 
H15   H     0.94593599001029 0.06260808920125 0.86869525954127 
H16   H     0.44589405983348 0.56250838042419 0.36873035014295 
H17   H     0.19359120015385 0.55733886951206 0.90858238010996 
H18   H     0.69363194000105 0.05701714998078 0.40881079942648 
H19   H     0.80647527988991 0.44266573023453 0.90784677015940 
H20   H     0.30643779992012 0.94254395067130 0.40784034050097 
H21   H     0.23644174985970 0.29035132948463 0.73519430011773 
H22   H     0.73646186003787 0.79013369998476 0.23525433045491 
H23   H     0.76360914003946 0.70964453986320 0.73422829015393 
H24   H     0.26357992992967 0.20951799039082 0.23418553953620 
H25   H     0.20048765002407 0.93456510023717 0.63697733963945 
H26   H     0.70049943006516 0.43437316065426 0.13701488964259 
H27   H     0.79952825014126 0.06553810065426 0.63633682962666 
H28   H     0.29950189996463 0.56535101073477 0.13625041973490 
H29   H     0.12367411988399 0.83837491927913 0.72272140947853 
H30   H     0.62366780006102 0.33833957032527 0.22261516021048 
H31   H     0.87632785987098 0.16188892007067 0.72262237953734 
H32   H     0.37631186997296 0.66169125053583 0.22254882037674 
