data_stdin
_audit_creation_method 'critic2'
_audit_creation_date 2023-8-11
_chemical_formula_sum 'C10 H8'
_cell_formula_units_Z 4
_cell_length_a        11.0710202567
_cell_length_b         5.9652712437
_cell_length_c        14.7462778705
_cell_angle_alpha        89.9879
_cell_angle_beta        46.2911
_cell_angle_gamma        90.0004
_cell_volume           703.969768
_space_group_crystal_system triclinic
_space_group_IT_number 2
_space_group_name_H-M_alt 'P-1'
_space_group_name_Hall '-P 1'
loop_
_symmetry_equiv_pos_site_id
_symmetry_equiv_pos_as_xyz
 1 'x,y,z'
 2 '-x,-y,-z'
loop_
_atom_site_label
_atom_site_type_symbol
_atom_site_fract_x
_atom_site_fract_y
_atom_site_fract_z
C1    C     0.85964908008213 0.25532474964508 0.12735885971351 
C2    C     0.14033230928689 0.75531264983952 0.37280689041320 
C3    C     0.87635822042122 0.31779386998456 0.20820513985191 
C4    C     0.12343546929547 0.81791288062463 0.29207359046481 
C5    C     0.81569250966579 0.52813253929811 0.26948670040379 
C6    C     0.18413829964515 0.02827601925781 0.23074424018824 
C7    C     0.73959260999451 0.67255607922887 0.24876671984299 
C8    C     0.26047633983335 0.17258188069621 0.25129176039476 
C9    C     0.72021109016030 0.61282445037893 0.16621482989591 
C10   C     0.28002167982240 0.11273072918927 0.33374499012501 
C11   C     0.78133190935619 0.39937855065528 0.10429484034970 
C12   C     0.21883532018562 0.89927453941486 0.39573099031607 
C13   C     0.75763636058212 0.33763258957796 0.02459531950475 
C14   C     0.24256964015216 0.83747167009534 0.47541061018836 
C15   C     0.67542948029475 0.47844982078119 0.00791435019139 
C16   C     0.32488024040061 0.97824252076386 0.49200505953676 
C17   C     0.61493605006641 0.68891265016064 0.06917255005166 
C18   C     0.38547080976103 0.18869780982338 0.43066105985926 
C19   C     0.63804836958595 0.75523245075120 0.14597012989258 
C20   C     0.36232775982939 0.25507024030549 0.35387863998091 
H1    H     0.90391366942719 0.09218410025220 0.08169005035154 
H2    H     0.09603151977420 0.59216315008333 0.41852281976670 
H3    H     0.93563438942892 0.20519984986118 0.22581996029540 
H4    H     0.06394482026239 0.70543139975745 0.27460974997559 
H5    H     0.82776114996053 0.57585086036617 0.33419184992686 
H6    H     0.17185064077984 0.07612981934682 0.16617278944072 
H7    H     0.69116282940409 0.83378966015868 0.29644298041120 
H8    H     0.30894110969625 0.33383226997792 0.20357381994838 
H9    H     0.80424688983116 0.17558289921752 0.97766829004327 
H10   H     0.19589105039238 0.67542092006107 0.52239643008559 
H11   H     0.65681873971526 0.42686920922567 0.94743373982519 
H12   H     0.34347892045990 0.92664590997642 0.55249879999913 
H13   H     0.54852497035000 0.79860160990551 0.05678300973572 
H14   H     0.45199906023937 0.29832233050793 0.44295952017012 
H15   H     0.59129231003254 0.91661484953127 0.19350694013505 
H16   H     0.40915062029532 0.41645148074390 0.30628131011483 
