data_stdin
_audit_creation_method 'critic2'
_audit_creation_date 2023-8-11
_chemical_formula_sum 'C10 H8'
_cell_formula_units_Z 4
_cell_length_a         7.9584960838
_cell_length_b         3.8885235406
_cell_length_c        25.3317657179
_cell_angle_alpha        89.9999
_cell_angle_beta        71.1877
_cell_angle_gamma        89.9991
_cell_volume           742.059124
_space_group_crystal_system monoclinic
_space_group_IT_number 13
_space_group_name_H-M_alt 'P2/c'
_space_group_name_Hall '-P 2yc'
loop_
_symmetry_equiv_pos_site_id
_symmetry_equiv_pos_as_xyz
 1 'x,y,z'
 2 '-x,-y,-z'
 3 '-x,y,-1/2-z'
 4 'x,-y,-1/2+z'
loop_
_atom_site_label
_atom_site_type_symbol
_atom_site_fract_x
_atom_site_fract_y
_atom_site_fract_z
C1    C     0.44218159923046 0.78826276876512 0.83380476013318 
C2    C     0.54436903952215 0.75937740976302 0.86832509013924 
C3    C     0.47996409016304 0.88247179973003 0.92377875996007 
C4    C     0.31455283049983 0.03261224949116 0.94366775005341 
C5    C     0.20633978947196 0.06661026887716 0.90906893010142 
C6    C     0.27195708059540 0.94382730089765 0.85271092980396 
C7    C     0.16422627960938 0.98130003094131 0.81800833988088 
C8    C     0.99839296024206 0.12994542124187 0.83811737000098 
C9    C     0.93277758978397 0.24664886090508 0.89393307988778 
C10   C     0.03497174950098 0.21693824010089 0.92845327018956 
H1    H     0.49075880954210 0.68757260072458 0.79150074989669 
H2    H     0.67462804003595 0.63916993045709 0.85308962985780 
H3    H     0.56174958034760 0.85708165043481 0.95073193996196 
H4    H     0.26391817948895 0.12787035121694 0.98634619014120 
H5    H     0.21439209018506 0.88824841101056 0.77517879019976 
H6    H     0.91668468052483 0.15680758958021 0.81113148000790 
H7    H     0.80124298971765 0.36139794937228 0.90954551018514 
H8    H     0.98476048967221 0.30771789988652 0.97135227004533 
