data_stdin
_audit_creation_method 'critic2'
_audit_creation_date 2023-8-11
_chemical_formula_sum 'C10 H8'
_cell_formula_units_Z 4
_cell_length_a         5.8492276903
_cell_length_b         5.8492670308
_cell_length_c        20.4609352900
_cell_angle_alpha        89.9991
_cell_angle_beta        89.9995
_cell_angle_gamma        89.9992
_cell_volume           700.044193
_space_group_crystal_system tetragonal
_space_group_IT_number 76
_space_group_name_H-M_alt 'P4_1'
_space_group_name_Hall 'P 4w'
loop_
_symmetry_equiv_pos_site_id
_symmetry_equiv_pos_as_xyz
 1 'x,y,z'
 2 '-y,x,-3/4+z'
 3 '-x,-y,-1/2+z'
 4 'y,-x,-1/4+z'
loop_
_atom_site_label
_atom_site_type_symbol
_atom_site_fract_x
_atom_site_fract_y
_atom_site_fract_z
C1    C     0.74512242966443 0.01882227994824 0.99760629988125 
C2    C     0.58799214963828 0.98471916005581 0.04686441999727 
C3    C     0.59450336018461 0.78340433966227 0.08515113985598 
C4    C     0.75824812990654 0.61882055081675 0.07328614987588 
C5    C     0.92438761985807 0.64979507967255 0.02343331994680 
C6    C     0.91824343918771 0.85472944058999 0.98481343987586 
C7    C     0.08704985045363 0.88809136935920 0.93577809981235 
C8    C     0.25698775028348 0.72805952972357 0.92612658991799 
C9    C     0.26125905959997 0.52489937952291 0.96356186999391 
C10   C     0.09754802052020 0.48575529959327 0.01067875015345 
H1    H     0.74073881928706 0.17325670919923 0.96791881013012 
H2    H     0.45670551033275 0.11194235976461 0.05653965018304 
H3    H     0.46812769027333 0.76027873969594 0.12370940011757 
H4    H     0.76290893022957 0.46183586040736 0.10194820980132 
H5    H     0.08016570066297 0.04358598937066 0.90643649002666 
H6    H     0.38952955044928 0.75739450052151 0.88973959996014 
H7    H     0.39563132954806 0.39939606081607 0.95542390017386 
H8    H     0.09878718000227 0.32749890955938 0.03870092009670 
