data_stdin
_audit_creation_method 'critic2'
_audit_creation_date 2023-8-11
_chemical_formula_sum 'C10 H8'
_cell_formula_units_Z 8
_cell_length_a        12.2479507883
_cell_length_b        11.9891206100
_cell_length_c        10.4729088772
_cell_angle_alpha        90.0002
_cell_angle_beta        67.6264
_cell_angle_gamma        90.0000
_cell_volume          1422.096380
_space_group_crystal_system monoclinic
_space_group_IT_number 15
_space_group_name_H-M_alt 'C2/c'
_space_group_name_Hall '-C 2yc'
loop_
_symmetry_equiv_pos_site_id
_symmetry_equiv_pos_as_xyz
 1 'x,y,z'
 2 '-x,-y,-z'
 3 '-1/2-x,-1/2+y,-1/2-z'
 4 'x,-y,-1/2+z'
 5 '-1/2+x,-1/2+y,z'
 6 '-1/2-x,-1/2-y,-z'
 7 '-x,y,-1/2-z'
 8 '-1/2+x,-1/2-y,-1/2+z'
loop_
_atom_site_label
_atom_site_type_symbol
_atom_site_fract_x
_atom_site_fract_y
_atom_site_fract_z
C1    C     0.07516975976361 0.29939873000255 0.93401373022835 
C2    C     0.12177838968487 0.21652923019298 0.83711216033971 
C3    C     0.24517265052210 0.20881072031871 0.76312070955453 
C4    C     0.31981510005285 0.28462732984222 0.78722245031596 
C5    C     0.27503212023560 0.37116728970396 0.88604137968683 
C6    C     0.14985472019502 0.37829012970108 0.96173285983494 
C7    C     0.10494840014699 0.46332295039763 0.06260725026932 
C8    C     0.17959307026091 0.53891245994911 0.08720550972693 
C9    C     0.30293569969876 0.53223937011146 0.01215922047851 
C10   C     0.34940547039173 0.44992977995089 0.91450418968913 
H1    H     0.98007819965684 0.30574832970147 0.99027452038147 
H2    H     0.06386650028756 0.15604474014684 0.81714538986972 
H3    H     0.28024100001938 0.14217311037829 0.68794132958734 
H4    H     0.41488331041188 0.27819823986996 0.73057299979567 
H5    H     0.01004214992614 0.46758712999423 0.12103762948939 
H6    H     0.14431917989846 0.60369244985460 0.16497580988955 
H7    H     0.36083494972277 0.59179132021980 0.03374681974184 
H8    H     0.44465872969790 0.44330972029026 0.85977748974646 
