data_stdin
_audit_creation_method 'critic2'
_audit_creation_date 2023-8-11
_chemical_formula_sum 'C10 H8'
_cell_formula_units_Z 4
_cell_length_a         3.9978220056
_cell_length_b        10.9088752661
_cell_length_c        16.7049175219
_cell_angle_alpha        90.0014
_cell_angle_beta        73.6107
_cell_angle_gamma        89.9988
_cell_volume           698.928050
_space_group_crystal_system monoclinic
_space_group_IT_number 14
_space_group_name_H-M_alt 'P2_1/c'
_space_group_name_Hall '-P 2ybc'
loop_
_symmetry_equiv_pos_site_id
_symmetry_equiv_pos_as_xyz
 1 'x,y,z'
 2 '-x,-y,-z'
 3 '-x,-1/2+y,-1/2-z'
 4 'x,-1/2-y,-1/2+z'
loop_
_atom_site_label
_atom_site_type_symbol
_atom_site_fract_x
_atom_site_fract_y
_atom_site_fract_z
C1    C     0.06122366966291 0.55698465997773 0.65430559018300 
C2    C     0.94418247041511 0.56144475037086 0.74017470975862 
C3    C     0.74646351025704 0.66275414969717 0.78062179995347 
C4    C     0.66965934988032 0.75831251043689 0.73476448997576 
C5    C     0.78767841994484 0.75684410993714 0.64626614996481 
C6    C     0.98701446026910 0.65379642992008 0.60515490015329 
C7    C     0.10157003027198 0.65193311032356 0.51666989023799 
C8    C     0.02110562006195 0.74662033972946 0.47068170008216 
C9    C     0.82723166886877 0.84862703021593 0.51119310006785 
C10   C     0.71403539943841 0.85369156006742 0.59707807006813 
H1    H     0.21338706094052 0.47897743960434 0.62302148982839 
H2    H     0.00477984107657 0.48693276970624 0.77712090969264 
H3    H     0.65308575923527 0.66488377958436 0.84845940001485 
H4    H     0.51370746901810 0.83586096027468 0.76569323984234 
H5    H     0.25361964990963 0.57390023013295 0.48554708973217 
H6    H     0.10624750069108 0.74324936992092 0.40279952987539 
H7    H     0.76869829060993 0.92368631969457 0.47433143972789 
H8    H     0.56415836943222 0.93196286002566 0.62854885987936 
