data_stdin
_audit_creation_method 'critic2'
_audit_creation_date 2023-8-11
_chemical_formula_sum 'C10 H8'
_cell_formula_units_Z 8
_cell_length_a        19.1306883031
_cell_length_b        19.1290068919
_cell_length_c         4.0495533325
_cell_angle_alpha        90.0003
_cell_angle_beta        90.0019
_cell_angle_gamma        90.0018
_cell_volume          1481.938367
_space_group_crystal_system tetragonal
_space_group_IT_number 85
_space_group_name_H-M_alt 'P4/n'
_space_group_name_Hall 'P 4ab -1ab'
loop_
_symmetry_equiv_pos_site_id
_symmetry_equiv_pos_as_xyz
 1 'x,y,z'
 2 'y,-1/2-x,z'
 3 '-1/2-x,-1/2-y,z'
 4 '-1/2-y,x,z'
 5 '-x,-y,-z'
 6 '-y,-1/2+x,-z'
 7 '-1/2+x,-1/2+y,-z'
 8 '-1/2+y,-x,-z'
loop_
_atom_site_label
_atom_site_type_symbol
_atom_site_fract_x
_atom_site_fract_y
_atom_site_fract_z
C1    C     0.98780012006362 0.10047074010053 0.61035379054045 
C2    C     0.05612918002720 0.08288718017059 0.67945188032434 
C3    C     0.11131899001742 0.12754603018050 0.58163621116592 
C4    C     0.09737110017967 0.18861968008698 0.41317442065945 
C5    C     0.02763128002796 0.20824042025577 0.33827396931425 
C6    C     0.97162670010562 0.16328280978307 0.44028138922599 
C7    C     0.90183109008177 0.18308804976198 0.36730930961177 
C8    C     0.88788086993583 0.24415333016450 0.19885997004201 
C9    C     0.94311509975315 0.28840832979857 0.09750314116838 
C10   C     0.01141101983590 0.27075852024899 0.16614956035718 
H1    H     0.94518706979550 0.06618799987619 0.68548684068797 
H2    H     0.06767708022042 0.03474060994340 0.81214780926390 
H3    H     0.16503213989677 0.11319070998205 0.63854760918922 
H4    H     0.13990031018658 0.22262480988701 0.33322170915560 
H5    H     0.85933391999063 0.14931966008953 0.44832486904846 
H6    H     0.83411588996581 0.25889228996448 0.14375426916457 
H7    H     0.93129230021788 0.33622923976199 0.96297566924601 
H8    H     0.05398245007181 0.30490776017467 0.09017033088345 
