data_stdin
_audit_creation_method 'critic2'
_audit_creation_date 2023-8-11
_chemical_formula_sum 'C10 H8'
_cell_formula_units_Z 8
_cell_length_a        15.2074286902
_cell_length_b        12.4006758707
_cell_length_c         8.2055168988
_cell_angle_alpha        89.9993
_cell_angle_beta        76.3583
_cell_angle_gamma        89.9992
_cell_volume          1503.762502
_space_group_crystal_system monoclinic
_space_group_IT_number 15
_space_group_name_H-M_alt 'C2/c'
_space_group_name_Hall '-C 2yc'
loop_
_symmetry_equiv_pos_site_id
_symmetry_equiv_pos_as_xyz
 1 'x,y,z'
 2 '-x,-y,-z'
 3 '-x,y,-1/2-z'
 4 '-1/2+x,-1/2-y,-1/2+z'
 5 '-1/2+x,-1/2+y,z'
 6 '-1/2-x,-1/2-y,-z'
 7 '-1/2-x,-1/2+y,-1/2-z'
 8 'x,-y,-1/2+z'
loop_
_atom_site_label
_atom_site_type_symbol
_atom_site_fract_x
_atom_site_fract_y
_atom_site_fract_z
C1    C     0.26034239256417 0.25031497643915 0.22083048652211 
C2    C     0.34929980035497 0.26824224732675 0.13921999960923 
C3    C     0.39592720306365 0.35966919480239 0.17894068915896 
C4    C     0.35274285019408 0.43140457545774 0.30035288199694 
C5    C     0.26076201448058 0.41604606569763 0.38490185965519 
C6    C     0.21345183029056 0.32370374038795 0.34336078724615 
C7    C     0.12078044975248 0.30983476992207 0.42437226567648 
C8    C     0.07664408434867 0.38369703858443 0.54082994527369 
C9    C     0.12373045170946 0.47374850951276 0.58375581351778 
C10   C     0.21380605197758 0.48933893534028 0.50772448650312 
H1    H     0.22498755927448 0.17918413145799 0.19169223464817 
H2    H     0.38353656988359 0.21129988643342 0.04424824038286 
H3    H     0.46657586983627 0.37220949618856 0.11524803849605 
H4    H     0.38851387552772 0.50145931211911 0.33292513468440 
H5    H     0.08525163974721 0.23940016086247 0.39259102954038 
H6    H     0.00548911202124 0.37265531337423 0.60154694733277 
H7    H     0.08899390844394 0.53046081838129 0.67875371335645 
H8    H     0.25013860001866 0.55812232174818 0.54185728735095 
