data_stdin
_audit_creation_method 'critic2'
_audit_creation_date 2023-8-11
_chemical_formula_sum 'C10 H8'
_cell_formula_units_Z 4
_cell_length_a        11.2649089800
_cell_length_b         5.5933890924
_cell_length_c        11.5183641500
_cell_angle_alpha        90.0017
_cell_angle_beta        90.0000
_cell_angle_gamma        90.0004
_cell_volume           725.760825
_space_group_crystal_system orthorhombic
_space_group_IT_number 33
_space_group_name_H-M_alt 'Pna2_1'
_space_group_name_Hall 'P 2c -2n'
loop_
_symmetry_equiv_pos_site_id
_symmetry_equiv_pos_as_xyz
 1 'x,y,z'
 2 '-x,-y,-1/2+z'
 3 '-1/2-x,-1/2+y,-1/2+z'
 4 '-1/2+x,-1/2-y,z'
loop_
_atom_site_label
_atom_site_type_symbol
_atom_site_fract_x
_atom_site_fract_y
_atom_site_fract_z
C1    C     0.71785989019469 0.09887681956426 0.00513150957917 
C2    C     0.79817942996053 0.91478576021413 0.99138781957617 
C3    C     0.80713949037487 0.73232045001549 0.07606035009062 
C4    C     0.73521736961417 0.73676348086158 0.17300856997046 
C5    C     0.65027256017883 0.92162773062835 0.18910386961077 
C6    C     0.64104950963248 0.10622298937690 0.10280501034767 
C7    C     0.55456994959208 0.28850572042876 0.11697047992729 
C8    C     0.48071762969784 0.29086169975984 0.21249746972833 
C9    C     0.49089542024562 0.11105830061699 0.29833213995916 
C10   C     0.57337087965308 0.93015680023546 0.28672631023008 
H1    H     0.71109903039807 0.24096347031605 0.94065909001940 
H2    H     0.85512698006749 0.90688960913332 0.91503912022453 
H3    H     0.87112090982467 0.58816866985500 0.06488219975866 
H4    H     0.74231877001318 0.59545132014355 0.23765106009205 
H5    H     0.54762571037254 0.42783878076595 0.05122818008087 
H6    H     0.41439034022539 0.43118918076665 0.22164321988346 
H7    H     0.43236376008299 0.11478134931205 0.37352767019608 
H8    H     0.57990860022489 0.79121193077729 0.35270098966139 
