data_stdin
_audit_creation_method 'critic2'
_audit_creation_date 2023-8-11
_chemical_formula_sum 'C10 H8'
_cell_formula_units_Z 8
_cell_length_a         5.3785385040
_cell_length_b         5.3785487214
_cell_length_c        53.0919458988
_cell_angle_alpha        89.9932
_cell_angle_beta        89.9903
_cell_angle_gamma        89.9998
_cell_volume          1535.882609
_space_group_crystal_system monoclinic
_space_group_IT_number 5
_space_group_name_H-M_alt 'C2'
_space_group_name_Hall 'C 2y'
loop_
_symmetry_equiv_pos_site_id
_symmetry_equiv_pos_as_xyz
 1 'x,y,z'
 2 '-y,-x,-1/2-z'
loop_
_atom_site_label
_atom_site_type_symbol
_atom_site_fract_x
_atom_site_fract_y
_atom_site_fract_z
C1    C     0.55113543255755 0.47407632186614 0.29891930428143 
C2    C     0.02589474782559 0.05068510610388 0.54891672094477 
C3    C     0.97352404527717 0.94897876269689 0.04889513040910 
C4    C     0.44965497774819 0.52626745270572 0.79891429237002 
C5    C     0.72736528048395 0.47276099231882 0.28006409656256 
C6    C     0.02711411340205 0.22694056293101 0.53006458940934 
C7    C     0.97229563118564 0.77275684988610 0.03004357974001 
C8    C     0.27345732104471 0.52730776001845 0.78006174131883 
C9    C     0.91518202714178 0.28822705050806 0.27965302284418 
C10   C     0.21150377549391 0.41489302891596 0.52965689532487 
C11   C     0.78782913376837 0.58488974007045 0.02963707328330 
C12   C     0.08543106360242 0.71161842542311 0.77964693844149 
C13   C     0.92297741854213 0.10743130312448 0.29804293367225 
C14   C     0.39226089250224 0.42280221684978 0.54804590182634 
C15   C     0.60701248202803 0.57700040934913 0.04802668034802 
C16   C     0.07734483354999 0.89245051560085 0.79802986123858 
C17   C     0.74415146323219 0.10343921737762 0.31771967859368 
C18   C     0.39636481091765 0.24393674936758 0.56771726650315 
C19   C     0.60293317504585 0.75581893577256 0.06769892151562 
C20   C     0.25614166845435 0.89672618666871 0.81770305139737 
C21   C     0.55460211563098 0.29128149734298 0.31821982289142 
C22   C     0.20864746909045 0.05425596350790 0.56821525310895 
C23   C     0.79071164198886 0.94542812649294 0.06819446327624 
C24   C     0.44592525052099 0.70912622635579 0.81820429149890 
C25   C     0.37751029627356 0.28860700806661 0.33803881269515 
C26   C     0.21141115012368 0.87712360129150 0.58802910593719 
C27   C     0.78797830972525 0.12251097256072 0.08800939792963 
C28   C     0.62308742266617 0.71210225733228 0.83800989431539 
C29   C     0.38480810911865 0.10755165024187 0.35642575026005 
C30   C     0.39245986178565 0.88446889309305 0.60641131290547 
C31   C     0.60690441324167 0.11515713810104 0.10639530693730 
C32   C     0.61566939184803 0.89323632342654 0.85638321763065 
C33   C     0.56979073293462 0.92051152231612 0.35572856888094 
C34   C     0.57940011860734 0.06954647839776 0.60571330420764 
C35   C     0.41990079117863 0.93015270609512 0.10569971962869 
C36   C     0.43044979988480 0.08003754953096 0.85568509064433 
C37   C     0.74611118652425 0.91937680508462 0.33686888460145 
C38   C     0.58042782791196 0.24593480417000 0.58686098659428 
C39   C     0.41883304367678 0.75382381203005 0.08684558939514 
C40   C     0.25402437234554 0.08086232577893 0.83684164306829 
H1    H     0.40712721611928 0.61641671898332 0.29936835307649 
H2    H     0.88366784188961 0.90656000293110 0.54936666056846 
H3    H     0.11580052086433 0.09305054186262 0.04934411722168 
H4    H     0.59387128797554 0.38413158935250 0.79937395057431 
H5    H     0.72309814045613 0.61397815840075 0.26538019984391 
H6    H     0.88597795431252 0.22255774300495 0.51537709903969 
H7    H     0.11350040320639 0.77709021195508 0.01535787747507 
H8    H     0.27794148862067 0.38608987842785 0.76538138061033 
H9    H     0.05333025505989 0.28960537315657 0.26466771370079 
H10   H     0.21002406422404 0.55307628054653 0.51467536810852 
H11   H     0.78929581878061 0.44673842563984 0.01465549829078 
H12   H     0.94730789860765 0.71003770264874 0.76466372539735 
H13   H     0.06772324553943 0.96575674007405 0.29784528519582 
H14   H     0.53382527375629 0.56765225622683 0.54785002507798 
H15   H     0.46539629555030 0.43220215982815 0.04783179948557 
H16   H     0.93240153336736 0.03392310947595 0.79782510255774 
H17   H     0.23479625677241 0.43219865827952 0.33851698274804 
H18   H     0.06789392239094 0.73433883506184 0.58850441147064 
H19   H     0.93154326435696 0.26524426386663 0.08848330650329 
H20   H     0.76595903103045 0.56867416659132 0.83848307162828 
H21   H     0.24834731240805 0.11042877807203 0.37157399017406 
H22   H     0.38966506537893 0.74795870804649 0.62155439258028 
H23   H     0.60971967735106 0.25162770892791 0.12153909324937 
H24   H     0.75225363118673 0.89061176224162 0.87151494143816 
H25   H     0.57207522759304 0.77695743209176 0.37017479689206 
H26   H     0.72295968813273 0.07185997391947 0.62015476468971 
H27   H     0.27631310039873 0.92785755499230 0.12014287146396 
H28   H     0.42805897752707 0.22366964355239 0.87011991600783 
H29   H     0.88865017339602 0.77557686717263 0.33623319295094 
H30   H     0.72415290881919 0.38854751919378 0.58622716614585 
H31   H     0.27506185642347 0.61126142659299 0.08621387336006 
H32   H     0.11134236590832 0.22450977615259 0.83621269329194 
