data_stdin
_audit_creation_method 'critic2'
_audit_creation_date 2023-8-11
_chemical_formula_sum 'C10 H8'
_cell_formula_units_Z 4
_cell_length_a        15.3343363658
_cell_length_b         5.9135970559
_cell_length_c         8.1535087805
_cell_angle_alpha        90.0002
_cell_angle_beta        77.5419
_cell_angle_gamma        90.0025
_cell_volume           721.959974
_space_group_crystal_system monoclinic
_space_group_IT_number 14
_space_group_name_H-M_alt 'P2_1/c'
_space_group_name_Hall '-P 2ybc'
loop_
_symmetry_equiv_pos_site_id
_symmetry_equiv_pos_as_xyz
 1 'x,y,z'
 2 '-x,-y,-z'
 3 '-x,-1/2+y,-1/2-z'
 4 'x,-1/2-y,-1/2+z'
loop_
_atom_site_label
_atom_site_type_symbol
_atom_site_fract_x
_atom_site_fract_y
_atom_site_fract_z
C1    C     0.70617192985306 0.25574753014742 0.73808288945858 
C2    C     0.62013001020075 0.19759376038055 0.81678824982949 
C3    C     0.58334441997197 0.98849199004508 0.78047147018742 
C4    C     0.63323065005572 0.84101986014078 0.66649267062486 
C5    C     0.72206539997292 0.89518263944603 0.58436296048355 
C6    C     0.75931670992464 0.10721282942470 0.62074117031504 
C7    C     0.84827373991871 0.16106593004793 0.53845722995879 
C8    C     0.89784568009527 0.01292327008814 0.42437897031895 
C9    C     0.86088622969121 0.80400050949670 0.38840992035875 
C10   C     0.77492735029155 0.74608841069451 0.46724212023314 
H1    H     0.73448031999690 0.41637302036327 0.76585009991511 
H2    H     0.58081431998159 0.31283386930393 0.90803488012445 
H3    H     0.51546276022866 0.94281233935195 0.84280834012778 
H4    H     0.60557964027298 0.67962094081664 0.63842696942374 
H5    H     0.87631377011383 0.32216284918796 0.56655869053791 
H6    H     0.96591548002588 0.05623226930016 0.36180468974518 
H7    H     0.89983203968071 0.68903730965962 0.29658992051684 
H8    H     0.74640802971185 0.58560518048874 0.43973675029300 
