data_stdin
_audit_creation_method 'critic2'
_audit_creation_date 2023-8-11
_chemical_formula_sum 'C10 H8'
_cell_formula_units_Z 4
_cell_length_a         5.7997028038
_cell_length_b         7.6363381800
_cell_length_c        17.2595806283
_cell_angle_alpha        90.0000
_cell_angle_beta        69.9507
_cell_angle_gamma        90.0000
_cell_volume           718.076722
_space_group_crystal_system monoclinic
_space_group_IT_number 14
_space_group_name_H-M_alt 'P2_1/c'
_space_group_name_Hall '-P 2ybc'
loop_
_symmetry_equiv_pos_site_id
_symmetry_equiv_pos_as_xyz
 1 'x,y,z'
 2 '-x,-y,-z'
 3 '-x,-1/2+y,-1/2-z'
 4 'x,-1/2-y,-1/2+z'
loop_
_atom_site_label
_atom_site_type_symbol
_atom_site_fract_x
_atom_site_fract_y
_atom_site_fract_z
C1    C     0.96020678999321 0.77827414053130 0.82511690970398 
C2    C     0.98922031022820 0.82119846009899 0.89890209018774 
C3    C     0.20341145984509 0.90889719938610 0.89974715010039 
C4    C     0.38586203984564 0.95277035977395 0.82683355998773 
C5    C     0.36199376101644 0.91036880029839 0.74985072975415 
C6    C     0.14459038056489 0.82149783016167 0.74890574008909 
C7    C     0.12169245049564 0.77857510995454 0.67178407995461 
C8    C     0.30478597060105 0.82230710978309 0.59891650007160 
C9    C     0.51828933063252 0.91073677003761 0.59993512021130 
C10   C     0.54652216085208 0.95379494953442 0.67377694972828 
H1    H     0.79591109038507 0.71017906014187 0.82445823004282 
H2    H     0.84667362005900 0.78735549972545 0.95696253010418 
H3    H     0.22397151091443 0.94251150972081 0.95835239978928 
H4    H     0.55001212969176 0.02104762957400 0.82746499997739 
H5    H     0.95799481995305 0.70979224968724 0.67101152992664 
H6    H     0.28546152968655 0.78830576060651 0.54014988988506 
H7    H     0.66107351969522 0.94525693981678 0.54205390011541 
H8    H     0.71061353983913 0.02188061963825 0.67459814973357 
