data_stdin
_audit_creation_method 'critic2'
_audit_creation_date 2023-8-11
_chemical_formula_sum 'C10 H8'
_cell_formula_units_Z 4
_cell_length_a         7.6386943131
_cell_length_b         7.0472183300
_cell_length_c        13.4169605900
_cell_angle_alpha        89.9999
_cell_angle_beta        90.0034
_cell_angle_gamma        90.0000
_cell_volume           722.255738
_space_group_crystal_system monoclinic
_space_group_IT_number 7
_space_group_name_H-M_alt 'Pc'
_space_group_name_Hall 'P -2yc'
loop_
_symmetry_equiv_pos_site_id
_symmetry_equiv_pos_as_xyz
 1 'x,y,z'
 2 '-1/2+x,-y,z'
loop_
_atom_site_label
_atom_site_type_symbol
_atom_site_fract_x
_atom_site_fract_y
_atom_site_fract_z
C1    C     0.27450051949608 0.64797465054154 0.00486345990954 
C2    C     0.72558691937407 0.35179340033572 0.50484155010535 
C3    C     0.24155327064218 0.68142935051370 0.90534664035293 
C4    C     0.75841746961743 0.31837625992322 0.40531109031198 
C5    C     0.36786814984724 0.77404419943720 0.84528593978418 
C6    C     0.63196666060968 0.22594522954126 0.34525328027208 
C7    C     0.52529384043108 0.83131089038591 0.88590163010641 
C8    C     0.47452822962961 0.16880397036978 0.38589073036576 
C9    C     0.56410251946359 0.79681547000258 0.98783812963790 
C10   C     0.43583313959237 0.20326860010074 0.48784033996934 
C11   C     0.43579428047689 0.70326341993585 0.04853467027192 
C12   C     0.56427265941417 0.29665169960481 0.54853138035877 
C13   C     0.47466564949023 0.66867564964383 0.15045302032267 
C14   C     0.52551468030429 0.33120935043983 0.65046276010861 
C15   C     0.63211272981910 0.72591468003630 0.19105616979362 
C16   C     0.36805449033341 0.27409657059330 0.69108752997814 
C17   C     0.75835355062111 0.81868335986315 0.13101804028599 
C18   C     0.24167784982542 0.18151115021151 0.63105232006564 
C19   C     0.72535895993963 0.85220195028961 0.03151260990137 
C20   C     0.27455613993611 0.14802913029661 0.53153335036475 
H1    H     0.17650569996614 0.57894339946377 0.05122376032363 
H2    H     0.82368760025533 0.42069054972103 0.55119582991099 
H3    H     0.11695420996535 0.63740047931112 0.87338399032706 
H4    H     0.88302627034638 0.36229276993399 0.37332829021008 
H5    H     0.33941650037987 0.80235527058557 0.76707917022656 
H6    H     0.66031692937629 0.19770589019561 0.26702874021356 
H7    H     0.62135181977210 0.90674109004475 0.84089515990047 
H8    H     0.37836224978055 0.09350589935630 0.34088964023363 
H9    H     0.37865664057825 0.59319647037435 0.19546574026546 
H10   H     0.62163170939737 0.40655663945293 0.69547015029150 
H11   H     0.66071962947871 0.69724594011890 0.26920675030071 
H12   H     0.33954801015262 0.30269597968183 0.76925565978061 
H13   H     0.88299677978054 0.86262454966638 0.16295967965179 
H14   H     0.11702396017753 0.13768472965237 0.66301382985811 
H15   H     0.82327484976427 0.92136682004455 0.98515724004577 
H16   H     0.17653451053699 0.07899810964988 0.48518394028710 
