data_stdin
_audit_creation_method 'critic2'
_audit_creation_date 2023-8-11
_chemical_formula_sum 'C10 H8'
_cell_formula_units_Z 8
_cell_length_a        24.8668651535
_cell_length_b         5.3689797250
_cell_length_c        11.9312095223
_cell_angle_alpha        90.0020
_cell_angle_beta        67.9682
_cell_angle_gamma        89.9989
_cell_volume          1476.609043
_space_group_crystal_system monoclinic
_space_group_IT_number 15
_space_group_name_H-M_alt 'C2/c'
_space_group_name_Hall '-C 2yc'
loop_
_symmetry_equiv_pos_site_id
_symmetry_equiv_pos_as_xyz
 1 'x,y,z'
 2 '-1/2-x,-1/2-y,-z'
 3 '-1/2-x,-1/2+y,-1/2-z'
 4 'x,-y,-1/2+z'
 5 '-1/2+x,-1/2+y,z'
 6 '-x,-y,-z'
 7 '-x,y,-1/2-z'
 8 '-1/2+x,-1/2-y,-1/2+z'
loop_
_atom_site_label
_atom_site_type_symbol
_atom_site_fract_x
_atom_site_fract_y
_atom_site_fract_z
C1    C     0.30256799016467 0.85560832934541 0.87288467962527 
C2    C     0.29618365999412 0.68669222076669 0.79166675009811 
C3    C     0.33753828998417 0.49505042956095 0.74346831009510 
C4    C     0.38430946989209 0.47380183038237 0.77831874036317 
C5    C     0.39217061003785 0.64433276952570 0.86176751039570 
C6    C     0.35048882008973 0.84017419954789 0.90983974038871 
C7    C     0.35850026010159 0.01098832947411 0.99309988984627 
C8    C     0.40543441016771 0.99042898913351 0.02754362961600 
C9    C     0.44644216989635 0.79693446992550 0.98013292974599 
C10   C     0.43985021999514 0.62771152008441 0.89937381983349 
H1    H     0.27077057985840 0.00309127958784 0.91052793027259 
H2    H     0.25918890999117 0.70003543067924 0.76420231980758 
H3    H     0.33283634008962 0.36381349970433 0.67816742974339 
H4    H     0.41552729003989 0.32350359945585 0.74275424985964 
H5    H     0.32701678019560 0.16003094948458 0.02936395980579 
H6    H     0.41050103016077 0.12256097001003 0.09219110974176 
H7    H     0.48321164018079 0.78098493964330 0.00819406976576 
H8    H     0.47108962019851 0.47755000019102 0.86368990000865 
