data_stdin
_audit_creation_method 'critic2'
_audit_creation_date 2023-8-11
_chemical_formula_sum 'C10 H8'
_cell_formula_units_Z 16
_cell_length_a        23.1358330253
_cell_length_b        31.8017999743
_cell_length_c         3.9612966889
_cell_angle_alpha        90.0024
_cell_angle_beta        90.0104
_cell_angle_gamma        89.9923
_cell_volume          2914.568068
_space_group_crystal_system monoclinic
_space_group_IT_number 3
_space_group_name_H-M_alt 'P2'
_space_group_name_Hall 'P 2y'
loop_
_symmetry_equiv_pos_site_id
_symmetry_equiv_pos_as_xyz
 1 'x,y,z'
 2 '-x,-y,z'
 3 '-1/2+x,-1/2+y,z'
 4 '-1/2-x,-1/2-y,z'
loop_
_atom_site_label
_atom_site_type_symbol
_atom_site_fract_x
_atom_site_fract_y
_atom_site_fract_z
C1    C     0.62059663178635 0.14225149445796 0.52106757610855 
C2    C     0.62055424962971 0.64227652453121 0.02085510797499 
C3    C     0.62944039226257 0.39227393477083 0.77112281117458 
C4    C     0.62940849369543 0.89230154392096 0.27090535786462 
C5    C     0.57153264805772 0.11764978645316 0.52174592201654 
C6    C     0.57148872380706 0.61767911664829 0.02159266858598 
C7    C     0.67850067212684 0.36766100970878 0.77199406165897 
C8    C     0.67846621044140 0.86768540186449 0.27153239366586 
C9    C     0.52015928597617 0.13223155851541 0.67629240826508 
C10   C     0.52013425156255 0.63225236025886 0.17642202018768 
C11   C     0.72985929123851 0.38222022013364 0.92689705744622 
C12   C     0.72983807917913 0.88223028588984 0.42637195505736 
C13   C     0.51854073204980 0.17136000109844 0.82575918034317 
C14   C     0.51852558732641 0.67137882469166 0.32594934367604 
C15   C     0.73147850796701 0.42134873691178 0.07638920883840 
C16   C     0.73147105204167 0.92134564668399 0.57608704749905 
C17   C     0.56814119347193 0.19760146214812 0.82704843230674 
C18   C     0.56812705684259 0.69761872432334 0.32712384167507 
C19   C     0.68188220716650 0.44760415876986 0.07744338827671 
C20   C     0.68187720364445 0.94760314406401 0.57740447895688 
C21   C     0.62037496536414 0.18268896118408 0.67255977107981 
C22   C     0.62034732844341 0.68270817290892 0.17246815726621 
C23   C     0.62965830368302 0.43270833504215 0.92270604683774 
C24   C     0.62964239366397 0.93272439573885 0.42268653015697 
C25   C     0.66985138113124 0.20907504882482 0.67518672547963 
C26   C     0.66982408915551 0.70909304810776 0.17495072800948 
C27   C     0.58018781687632 0.45910989418645 0.92505429025145 
C28   C     0.58017670979149 0.95913058511907 0.42525674062727 
C29   C     0.66794560415806 0.24825840241498 0.82394274904173 
C30   C     0.66793838136104 0.74827589428355 0.32372333615467 
C31   C     0.58208776422762 0.49829729879842 0.07374726444320 
C32   C     0.58208919872239 0.99830326540241 0.57419537611088 
C33   C     0.61637195665342 0.26303941101155 0.97455646787233 
C34   C     0.61637885347821 0.76305466016252 0.47450064287510 
C35   C     0.63365283988315 0.51306346573359 0.22456886615574 
C36   C     0.63366323360634 0.01305061441315 0.72503943783133 
C37   C     0.56762263718329 0.23816380924054 0.97611490636911 
C38   C     0.56762815522010 0.73817872102213 0.47620435157970 
C39   C     0.68239530272600 0.48816905345922 0.22645216036702 
C40   C     0.68240304592868 0.98815348725950 0.72667404625912 
H1    H     0.66008545374009 0.13105127229942 0.40114731557868 
H2    H     0.66001272215271 0.63111365824439 0.90033428584080 
H3    H     0.58998046208822 0.38112210745233 0.65052057417185 
H4    H     0.58993835132249 0.88116122375226 0.15034716314228 
H5    H     0.57215650983388 0.08704689594820 0.39873020001453 
H6    H     0.57210396796651 0.58708557103656 0.89840661410175 
H7    H     0.67787576729740 0.33706327349607 0.64887569017990 
H8    H     0.67782793607038 0.83709680408455 0.14826810144619 
H9    H     0.48180623480840 0.11237573833254 0.67676426687005 
H10   H     0.48178421483849 0.61239252225014 0.17698899787614 
H11   H     0.76820456259264 0.36234757052738 0.92755425790998 
H12   H     0.76818614915878 0.86236022260693 0.42676438835796 
H13   H     0.47931260494502 0.18263013704304 0.94865892500495 
H14   H     0.47932310564773 0.68261981749181 0.44931317495476 
H15   H     0.77068393240950 0.43258136353906 0.19980552941382 
H16   H     0.77068518297310 0.93256458699469 0.69949060912909 
H17   H     0.70914165367596 0.19808066360998 0.55137600116919 
H18   H     0.70909891693874 0.69809515509843 0.05099751279819 
H19   H     0.54090818540287 0.44812276248974 0.80105439619910 
H20   H     0.54089001132497 0.94815800654997 0.30124930429007 
H21   H     0.70628049758029 0.26810701264636 0.82662481363474 
H22   H     0.70626715869946 0.76813112354632 0.32614758451522 
H23   H     0.54376376003303 0.51816554972430 0.07605038958302 
H24   H     0.54376978284252 0.01817609946792 0.57665933169315 
H25   H     0.61548647491510 0.29406596638402 0.09083109840012 
H26   H     0.61549698290489 0.79407509891556 0.59090536236663 
H27   H     0.63455084963730 0.54409101789173 0.34084708622284 
H28   H     0.63456626845912 0.04406266684633 0.84158627345636 
H29   H     0.52799335957259 0.24920290109479 0.09453687438141 
H30   H     0.52801475611705 0.74922583314620 0.59473862339871 
H31   H     0.72201130931465 0.49920599827653 0.34505278229071 
H32   H     0.72202703322751 0.99917460091899 0.84527965187667 
