data_stdin
_audit_creation_method 'critic2'
_audit_creation_date 2023-8-11
_chemical_formula_sum 'C10 H8'
_cell_formula_units_Z 8
_cell_length_a        10.6744639897
_cell_length_b        22.8439767447
_cell_length_c         5.9278574588
_cell_angle_alpha        90.0298
_cell_angle_beta        89.9995
_cell_angle_gamma        90.0115
_cell_volume          1445.491261
_space_group_crystal_system triclinic
_space_group_IT_number 2
_space_group_name_H-M_alt 'P-1'
_space_group_name_Hall '-P 1'
loop_
_symmetry_equiv_pos_site_id
_symmetry_equiv_pos_as_xyz
 1 'x,y,z'
 2 '-x,-y,-z'
loop_
_atom_site_label
_atom_site_type_symbol
_atom_site_fract_x
_atom_site_fract_y
_atom_site_fract_z
C1    C     0.50235404718410 0.32671787567444 0.33152572168349 
C2    C     0.00234636107076 0.17327968304883 0.66819434558521 
C3    C     0.49746862580107 0.82669569160811 0.16764281857969 
C4    C     0.99746872022585 0.67330693850765 0.83213500985628 
C5    C     0.44913425224388 0.36253147171411 0.17072921228013 
C6    C     0.94912465304583 0.13747516465128 0.82904752533285 
C7    C     0.55075463162394 0.86248080339206 0.32865091470660 
C8    C     0.05075270110428 0.63751509633285 0.67117343763075 
C9    C     0.47808257002800 0.42296078273240 0.16691091320689 
C10   C     0.97813315665238 0.07705679615545 0.83305448965185 
C11   C     0.52186316602395 0.92291087331282 0.33288061516129 
C12   C     0.02191987641361 0.57707395468437 0.66711487566852 
C13   C     0.55785852137371 0.44668327275674 0.32543879627899 
C14   C     0.05793573279793 0.05333309275470 0.67460570509225 
C15   C     0.44211766706156 0.94666758395833 0.17450762330228 
C16   C     0.94219327887500 0.55331764943381 0.82556165624072 
C17   C     0.61363639731985 0.41107537621484 0.49403811433300 
C18   C     0.11368150014649 0.08892921199611 0.50590302285405 
C19   C     0.38629985569893 0.91109207648071 0.00567894019237 
C20   C     0.88634974346904 0.58890115679999 0.99429959317095 
C21   C     0.58678715117479 0.34947769712688 0.49472240977735 
C22   C     0.08682127788370 0.15052096436794 0.50510495652193 
C23   C     0.41303325664102 0.84948786699630 0.00465923385721 
C24   C     0.91307411296186 0.65051099137209 0.99521987409145 
C25   C     0.64517591553203 0.31352861489383 0.65931118961199 
C26   C     0.14521584179836 0.18646308882989 0.34046118481452 
C27   C     0.35456804700830 0.81356867573359 0.83987792904642 
C28   C     0.85461631283177 0.68643449937334 0.15995552526953 
C29   C     0.72362785182351 0.33734401148845 0.81984956113700 
C30   C     0.22367666360162 0.16264542230782 0.17998018406187 
C31   C     0.27618520396153 0.83741996940059 0.67944607021342 
C32   C     0.77624214104974 0.66258341670176 0.32044146268119 
C33   C     0.74768315598121 0.39825634668213 0.82273050989694 
C34   C     0.24772147275139 0.10173544612481 0.17718139593787 
C35   C     0.25228283900561 0.89834209667643 0.67684400371465 
C36   C     0.75232391805856 0.60166004536269 0.32311170301205 
C37   C     0.69424718881093 0.43423068382306 0.66260500268410 
C38   C     0.19428412416831 0.06577111997842 0.33735643985081 
C39   C     0.30576702854162 0.93428442957467 0.83718834538974 
C40   C     0.80580932788243 0.56570902498400 0.16280681389967 
H1    H     0.47937779336028 0.28023574939131 0.33683520010945 
H2    H     0.97934115819712 0.21975438565561 0.66276045763564 
H3    H     0.52037366914272 0.78021009548336 0.16203278524261 
H4    H     0.02034812135900 0.71979938682377 0.83763299801718 
H5    H     0.38447958188946 0.34477238619506 0.04629321870297 
H6    H     0.88439920044984 0.15522858712535 0.95334095402000 
H7    H     0.61545063937696 0.84470322054729 0.45287117813111 
H8    H     0.11538185722268 0.65529977414820 0.54681952611937 
H9    H     0.43586483505102 0.45065568969570 0.03853556158830 
H10   H     0.93596334502355 0.04937093165810 0.96154100375965 
H11   H     0.56410480216475 0.95058105488514 0.46144639543998 
H12   H     0.06420505949645 0.54939697325098 0.53864744199250 
H13   H     0.57780918751519 0.49344411923568 0.32483692598132 
H14   H     0.07791438889218 0.00657825128602 0.67533935497133 
H15   H     0.42222673888279 0.99343098517334 0.17540778232713 
H16   H     0.92232595189579 0.50654895694425 0.82477726255505 
H17   H     0.62718592724916 0.26659929231253 0.65640933538024 
H18   H     0.12721795805166 0.23338847069626 0.34328047321389 
H19   H     0.37244497573093 0.76663333308667 0.84255474246390 
H20   H     0.87248766814123 0.73337360514387 0.15720644993936 
H21   H     0.76747116460359 0.30954486449962 0.94627313722877 
H22   H     0.26751045063032 0.19043953040195 0.05350400193595 
H23   H     0.23229893018815 0.80964376267896 0.55286272988437 
H24   H     0.73234595374160 0.69036229302714 0.44697677887379 
H25   H     0.80901932235913 0.41606652330229 0.95251118545606 
H26   H     0.30902699153794 0.08391783474107 0.04738934363330 
H27   H     0.19104349173194 0.91618502558095 0.54707572906317 
H28   H     0.69105584465448 0.58382266011693 0.45287066685776 
H29   H     0.71259131938655 0.48119150262464 0.66367142951771 
H30   H     0.21262654531045 0.01881332441539 0.33635481907898 
H31   H     0.28751643454086 0.98124985607501 0.83635782532588 
H32   H     0.78755629971505 0.51874063755900 0.16369381238922 
