data_stdin
_audit_creation_method 'critic2'
_audit_creation_date 2023-8-11
_chemical_formula_sum 'C10 H8'
_cell_formula_units_Z 4
_cell_length_a         7.9820565102
_cell_length_b        11.8729833901
_cell_length_c         7.7499831092
_cell_angle_alpha        90.0002
_cell_angle_beta        81.4036
_cell_angle_gamma        90.0012
_cell_volume           726.221005
_space_group_crystal_system monoclinic
_space_group_IT_number 14
_space_group_name_H-M_alt 'P2_1/c'
_space_group_name_Hall '-P 2ybc'
loop_
_symmetry_equiv_pos_site_id
_symmetry_equiv_pos_as_xyz
 1 'x,y,z'
 2 '-x,-y,-z'
 3 '-1/2-x,-1/2+y,-1/2-z'
 4 '-1/2+x,-1/2-y,-1/2+z'
loop_
_atom_site_label
_atom_site_type_symbol
_atom_site_fract_x
_atom_site_fract_y
_atom_site_fract_z
C1    C     0.06201641970995 0.98834646997932 0.72705788006475 
C2    C     0.22542782992403 0.96715106013874 0.75595095974903 
C3    C     0.30973159044815 0.04429905021692 0.85235697941829 
C4    C     0.22911226064575 0.14090160993809 0.91986246959577 
C5    C     0.06020377062106 0.16447176992922 0.89410094982116 
C6    C     0.97513517976427 0.08686409026067 0.79453772971251 
C7    C     0.80569218006121 0.10995097963622 0.77028648979218 
C8    C     0.72282196060473 0.20459050960437 0.84266326955434 
C9    C     0.80603968048541 0.28070277983679 0.94181578970270 
C10   C     0.97109571033564 0.26110747980534 0.96613274975497 
H1    H     0.99626958999337 0.92873524975669 0.65388601999974 
H2    H     0.28937965976557 0.88995947030434 0.70792902950005 
H3    H     0.43844718052982 0.02606703041033 0.87476439965843 
H4    H     0.29275008030025 0.19933587989695 0.99712983030723 
H5    H     0.74169068045350 0.05035754013082 0.69511309969330 
H6    H     0.59227363032019 0.22084882020311 0.82466524062734 
H7    H     0.73898728027401 0.35411609003400 0.00139199990353 
H8    H     0.03419719961427 0.31940632958869 0.04375863034436 
