data_stdin
_audit_creation_method 'critic2'
_audit_creation_date 2023-8-11
_chemical_formula_sum 'C10 H8'
_cell_formula_units_Z 8
_cell_length_a        14.9508508201
_cell_length_b        16.0255818402
_cell_length_c         6.0235031333
_cell_angle_alpha        89.9993
_cell_angle_beta        90.0035
_cell_angle_gamma        90.0000
_cell_volume          1443.207756
_space_group_crystal_system orthorhombic
_space_group_IT_number 41
_space_group_name_H-M_alt 'Aea2'
_space_group_name_Hall 'A 2 -2ac'
loop_
_symmetry_equiv_pos_site_id
_symmetry_equiv_pos_as_xyz
 1 'x,y,z'
 2 '-x,-1/2-y,-1/2+z'
 3 '-1/2-x,y,-1/2+z'
 4 '-1/2+x,-1/2-y,z'
 5 'x,-1/2+y,-1/2+z'
 6 '-x,-y,z'
 7 '-1/2-x,-1/2+y,z'
 8 '-1/2+x,-y,-1/2+z'
loop_
_atom_site_label
_atom_site_type_symbol
_atom_site_fract_x
_atom_site_fract_y
_atom_site_fract_z
C1    C     0.82717713008948 0.19337859985533 0.00016500072671 
C2    C     0.84197582019315 0.11305635025615 0.07356136023764 
C3    C     0.88488184020121 0.09847597976349 0.27940231023008 
C4    C     0.91150881990326 0.16448289992560 0.41085703060344 
C5    C     0.89632652021108 0.24801221977145 0.34106665927112 
C6    C     0.85346352000010 0.26280074016033 0.13119978972891 
C7    C     0.83744324029844 0.34632224982673 0.06273716941830 
C8    C     0.86387981024402 0.41233620970478 0.19450538973813 
C9    C     0.90770010027041 0.39770213976067 0.39918015967954 
C10   C     0.92301125014621 0.31736046986883 0.47159987965220 
H1    H     0.79463093004190 0.20434854012804 0.84120657026056 
H2    H     0.82018901987852 0.06055066980514 0.97246340923793 
H3    H     0.89725141019382 0.03463889993338 0.33345244962583 
H4    H     0.94477231027435 0.15357878012624 0.56927062958645 
H5    H     0.80355443998985 0.35721932999357 0.90518443063842 
H6    H     0.85076640006500 0.47618694002123 0.14165350987567 
H7    H     0.92955114968802 0.45023219972412 0.50009253079155 
H8    H     0.95612238029261 0.30626310986780 0.62971032019221 
