data_stdin
_audit_creation_method 'critic2'
_audit_creation_date 2023-8-11
_chemical_formula_sum 'C10 H8'
_cell_formula_units_Z 4
_cell_length_a        11.0763874663
_cell_length_b         5.9748511244
_cell_length_c        14.7165318469
_cell_angle_alpha        90.0272
_cell_angle_beta        46.2461
_cell_angle_gamma        90.0061
_cell_volume           703.491286
_space_group_crystal_system triclinic
_space_group_IT_number 2
_space_group_name_H-M_alt 'P-1'
_space_group_name_Hall '-P 1'
loop_
_symmetry_equiv_pos_site_id
_symmetry_equiv_pos_as_xyz
 1 'x,y,z'
 2 '-x,-y,-z'
loop_
_atom_site_label
_atom_site_type_symbol
_atom_site_fract_x
_atom_site_fract_y
_atom_site_fract_z
C1    C     0.14086299012403 0.24390685999069 0.87346185989407 
C2    C     0.85898858992673 0.74421220950530 0.62670548005935 
C3    C     0.12320786017506 0.18165123048861 0.79298268989029 
C4    C     0.87647655988546 0.68215294070725 0.70728056990323 
C5    C     0.18315717006070 0.97138079942028 0.73169608969589 
C6    C     0.81655387985922 0.47195785038052 0.76851291980102 
C7    C     0.25951317971173 0.82683235023681 0.75201780011851 
C8    C     0.74036869040611 0.32729465047650 0.74805260006667 
C9    C     0.27986571949122 0.88635228057809 0.83418178038692 
C10   C     0.72016039002768 0.38663068046953 0.66580471979140 
C11   C     0.21941458993847 0.09968919946174 0.89614238007884 
C12   C     0.78060797958222 0.59987943064029 0.60388462038590 
C13   C     0.24377187969744 0.16107126973599 0.97563322973759 
C14   C     0.75636643969814 0.66110608059710 0.52432817980669 
C15   C     0.32587534965206 0.01990052943882 0.99213976004444 
C16   C     0.67436503003419 0.51987346078234 0.50772336995228 
C17   C     0.38578158042915 0.80955304076693 0.93079621004159 
C18   C     0.61446294940702 0.30961284069868 0.56902482030848 
C19   C     0.36212904028615 0.74368675981882 0.85412549001227 
C20   C     0.63801283980310 0.24388980945886 0.64575187029004 
H1    H     0.09678062974554 0.40672769056374 0.91939867976784 
H2    H     0.90306660027958 0.90697209937984 0.58080470012660 
H3    H     0.06355683013523 0.29425912068394 0.77579503973893 
H4    H     0.93592293023297 0.79489607018600 0.72461976983193 
H5    H     0.17021481960622 0.92376795053819 0.66735536036326 
H6    H     0.82936123989596 0.42450637061988 0.83293269039572 
H7    H     0.30727564981362 0.66556426031683 0.70439554033920 
H8    H     0.69262388988263 0.16608785993543 0.79563640032898 
H9    H     0.19783305995359 0.32314845080827 0.02249491972564 
H10   H     0.80230434043816 0.82311696929881 0.47749823986023 
H11   H     0.34495487976074 0.07117140005354 0.05248729013829 
H12   H     0.65535734005627 0.57103651994328 0.44733742981548 
H13   H     0.45225467026810 0.69966584066386 0.94294894975256 
H14   H     0.54810141050341 0.19964952917716 0.55677583978022 
H15   H     0.40874265980577 0.58259841009398 0.80632088028026 
H16   H     0.59139902990376 0.08286468922265 0.69352021998300 
