data_stdin
_audit_creation_method 'critic2'
_audit_creation_date 2023-8-11
_chemical_formula_sum 'C10 H8'
_cell_formula_units_Z 18
_cell_length_a        21.7501536023
_cell_length_b        21.7584345037
_cell_length_c         8.2600796679
_cell_angle_alpha        90.0033
_cell_angle_beta        89.9943
_cell_angle_gamma       119.9827
_cell_volume          3385.949317
_space_group_crystal_system triclinic
_space_group_IT_number 2
_space_group_name_H-M_alt 'P-1'
_space_group_name_Hall '-P 1'
loop_
_symmetry_equiv_pos_site_id
_symmetry_equiv_pos_as_xyz
 1 'x,y,z'
 2 '-x,-y,-z'
 3 '-1/3+x,-2/3+y,-2/3+z'
 4 '-1/3-x,-2/3-y,-2/3-z'
 5 '-2/3+x,-1/3+y,-1/3+z'
 6 '-2/3-x,-1/3-y,-1/3-z'
loop_
_atom_site_label
_atom_site_type_symbol
_atom_site_fract_x
_atom_site_fract_y
_atom_site_fract_z
C1    C     0.08153292982123 0.76523946989744 0.46113822043643 
C2    C     0.23479569003803 0.31631528017725 0.46102784991435 
C3    C     0.68368007991795 0.91843746986611 0.46109304984022 
C4    C     0.10292821022480 0.79421615023076 0.61334396000110 
C5    C     0.20582984004706 0.30875663989115 0.61326468036047 
C6    C     0.69126312009256 0.89704050983856 0.61330148948665 
C7    C     0.11972617015660 0.86497079003611 0.64380498001900 
C8    C     0.13506263009372 0.25481330002100 0.64381106050133 
C9    C     0.74526580993638 0.88026737010626 0.64378833961478 
C10   C     0.11495280979529 0.90559268001213 0.52171122038150 
C11   C     0.09441757006342 0.20940878982573 0.52176937987529 
C12   C     0.79070501018869 0.88506749001059 0.52171639018562 
C13   C     0.09233988023727 0.87703074020663 0.36423212940628 
C14   C     0.12296740016354 0.21533500997126 0.36426000015506 
C15   C     0.78475231996509 0.90767757012516 0.36423357984204 
C16   C     0.07487416012747 0.80516048020435 0.33343334001432 
C17   C     0.19485153995318 0.26972451019280 0.33337572946683 
C18   C     0.73030070972293 0.92511772986169 0.33340883042766 
C19   C     0.05155039002350 0.77636707026346 0.17651049971033 
C20   C     0.22363344018806 0.27516915014545 0.17642311979583 
C21   C     0.72482736017629 0.94843899003673 0.17648144942717 
C22   C     0.04511043013558 0.81641138010954 0.05543076020798 
C23   C     0.18356580973997 0.22867585989221 0.05539693954632 
C24   C     0.77135039000092 0.95489911978535 0.05542214970861 
C25   C     0.06291745004617 0.88747152991498 0.08531789012374 
C26   C     0.11249142006280 0.17543851016715 0.08536841969746 
C27   C     0.82465053005621 0.93711706977159 0.08533486943534 
C28   C     0.08616597016665 0.91720028988668 0.23631390019091 
C29   C     0.08277188003565 0.16898256976762 0.23639451039887 
C30   C     0.83113676974899 0.91387236987675 0.23633552039694 
H1    H     0.07023815998771 0.71143613024191 0.43546452055526 
H2    H     0.28860773999051 0.35881196013808 0.43529152023773 
H3    H     0.64114209985999 0.92972002973741 0.43540294998175 
H4    H     0.10819583988405 0.76306811978765 0.70988586962631 
H5    H     0.23699545008790 0.34517945991801 0.70976541002505 
H6    H     0.65481756023901 0.89175731025261 0.70982828032827 
H7    H     0.13735472006528 0.88779779013501 0.76376654996285 
H8    H     0.11224346000111 0.24963026975900 0.76379661048672 
H9    H     0.75046852007575 0.86264027001013 0.76375221984907 
H10   H     0.12899986980191 0.96037008992856 0.54453477951588 
H11   H     0.03963047989212 0.16868705000218 0.54465663056472 
H12   H     0.83147353978778 0.87104295982942 0.54456067019047 
H13   H     0.03964785002083 0.72223283991711 0.15317813962450 
H14   H     0.27777700989143 0.31738822010103 0.15302535022187 
H15   H     0.68256317007987 0.96032484000972 0.15312929962641 
H16   H     0.02688061981239 0.79395473975489 0.93544495945472 
H17   H     0.20601373991297 0.23288332015622 0.93538788980271 
H18   H     0.76711819986046 0.97312475005224 0.93543236995419 
H19   H     0.05910604024231 0.91898470005397 0.98752164035836 
H20   H     0.08095929020914 0.14010787014366 0.98761112972265 
H21   H     0.86000747008664 0.94094625009514 0.98755379986473 
H22   H     0.10053644015124 0.97210680021143 0.25995753056143 
H23   H     0.02785343997553 0.12845980985066 0.26010398003123 
H24   H     0.87170982002521 0.89952198024537 0.25999791005250 
