data_stdin
_audit_creation_method 'critic2'
_audit_creation_date 2023-8-11
_chemical_formula_sum 'C10 H8'
_cell_formula_units_Z 4
_cell_length_a        11.2704911049
_cell_length_b         5.9683537525
_cell_length_c        10.5467344638
_cell_angle_alpha        90.0001
_cell_angle_beta        89.2789
_cell_angle_gamma        90.0018
_cell_volume           709.383381
_space_group_crystal_system monoclinic
_space_group_IT_number 14
_space_group_name_H-M_alt 'P2_1/c'
_space_group_name_Hall '-P 2ybc'
loop_
_symmetry_equiv_pos_site_id
_symmetry_equiv_pos_as_xyz
 1 'x,y,z'
 2 '-x,-y,-z'
 3 '-x,-1/2+y,-1/2-z'
 4 'x,-1/2-y,-1/2+z'
loop_
_atom_site_label
_atom_site_type_symbol
_atom_site_fract_x
_atom_site_fract_y
_atom_site_fract_z
C1    C     0.12555309986947 0.83563737948076 0.30109844036902 
C2    C     0.18851088961026 0.67292586083213 0.23637395962946 
C3    C     0.31389175982217 0.67246989024948 0.23754266972127 
C4    C     0.37472037026819 0.83471644922069 0.30327767025972 
C5    C     0.31279083001441 0.00535424063325 0.37073227013137 
C6    C     0.18525691037522 0.00571860074167 0.36963659000592 
C7    C     0.12339019035544 0.17606973052555 0.43737508022567 
C8    C     0.18392833038395 0.33762621044777 0.50403757046475 
C9    C     0.30946004995912 0.33735021975332 0.50511863980359 
C10   C     0.37229611021628 0.17547327053142 0.43946187021931 
H1    H     0.02883997971495 0.83522780944454 0.30040477044420 
H2    H     0.14308694994947 0.54180792011499 0.18431159020195 
H3    H     0.36106488033710 0.54090546064494 0.18645215015772 
H4    H     0.47141956003767 0.83325790946637 0.30415552984383 
H5    H     0.02671731964050 0.17722306052902 0.43621600046976 
H6    H     0.13587759029879 0.46755836060733 0.55566098003785 
H7    H     0.35567799000926 0.46707412956628 0.55756721045916 
H8    H     0.46899992981226 0.17628938974348 0.43984059997171 
