data_stdin
_audit_creation_method 'critic2'
_audit_creation_date 2023-8-11
_chemical_formula_sum 'C10 H8'
_cell_formula_units_Z 8
_cell_length_a        24.7340690250
_cell_length_b         8.3240825243
_cell_length_c         7.5529165063
_cell_angle_alpha        89.9932
_cell_angle_beta       109.9195
_cell_angle_gamma        89.9946
_cell_volume          1462.022649
_space_group_crystal_system monoclinic
_space_group_IT_number 15
_space_group_name_H-M_alt 'C2/c'
_space_group_name_Hall '-C 2yc'
loop_
_symmetry_equiv_pos_site_id
_symmetry_equiv_pos_as_xyz
 1 'x,y,z'
 2 '-1/2-x,-1/2-y,-z'
 3 '-1/2-x,-1/2+y,-1/2-z'
 4 'x,-y,-1/2+z'
 5 '-1/2+x,-1/2+y,z'
 6 '-x,-y,-z'
 7 '-x,y,-1/2-z'
 8 '-1/2+x,-1/2-y,-1/2+z'
loop_
_atom_site_label
_atom_site_type_symbol
_atom_site_fract_x
_atom_site_fract_y
_atom_site_fract_z
C1    C     0.14549339002196 0.17157792998194 0.58055409983666 
C2    C     0.09534301006088 0.10125474992441 0.58377376035421 
C3    C     0.05089622996666 0.19694826977265 0.60674292045844 
C4    C     0.05718260008039 0.36139002982306 0.62436511029862 
C5    C     0.10772891010716 0.43792726949051 0.61768012039766 
C6    C     0.15320744008203 0.34064304024924 0.59777362033689 
C7    C     0.20380145996290 0.41712324999530 0.59187329931339 
C8    C     0.20881211997073 0.58204125055485 0.59990671979759 
C9    C     0.16367911021777 0.67787472016751 0.61719138059310 
C10   C     0.11446427011317 0.60732971955651 0.62778206017242 
H1    H     0.17976901010780 0.09815723002205 0.56263233021843 
H2    H     0.08968020988399 0.97171633943257 0.56808285936790 
H3    H     0.01164509997985 0.14010858056593 0.61048736962285 
H4    H     0.02313074016258 0.43531803022527 0.64248748038175 
H5    H     0.23852376981176 0.34330015988259 0.57845269958111 
H6    H     0.24769754020145 0.63903619962525 0.59335872050980 
H7    H     0.16837692006834 0.80795704027776 0.62394892058978 
H8    H     0.08004307997590 0.68043594032413 0.64513753940145 
