data_stdin
_audit_creation_method 'critic2'
_audit_creation_date 2023-8-11
_chemical_formula_sum 'C10 H8'
_cell_formula_units_Z 4
_cell_length_a         8.1395001007
_cell_length_b         5.9189125100
_cell_length_c        14.5096781233
_cell_angle_alpha        90.0014
_cell_angle_beta        96.0189
_cell_angle_gamma        89.9995
_cell_volume           695.179125
_space_group_crystal_system monoclinic
_space_group_IT_number 14
_space_group_name_H-M_alt 'P2_1/c'
_space_group_name_Hall '-P 2ybc'
loop_
_symmetry_equiv_pos_site_id
_symmetry_equiv_pos_as_xyz
 1 'x,y,z'
 2 '-x,-y,-z'
 3 '-x,-1/2+y,-1/2-z'
 4 'x,-1/2-y,-1/2+z'
loop_
_atom_site_label
_atom_site_type_symbol
_atom_site_fract_x
_atom_site_fract_y
_atom_site_fract_z
C1    C     0.36483294068265 0.75211789069108 0.71169336994467 
C2    C     0.38963266027011 0.69015587045005 0.62250728040677 
C3    C     0.32947046076320 0.48027821025638 0.58610784982128 
C4    C     0.24601348038029 0.33573540924259 0.63947649037417 
C5    C     0.21964397932900 0.39373466960169 0.73168701011403 
C6    C     0.28018683039140 0.60654345932544 0.76843643032515 
C7    C     0.25386101974776 0.66450763062902 0.86065532967519 
C8    C     0.17057785991118 0.51985611921525 0.91408111997499 
C9    C     0.11050994028898 0.30993400953398 0.87770627995579 
C10   C     0.13513745016362 0.24807843015416 0.78846936971345 
H1    H     0.41092916016049 0.91320633991414 0.73986154038348 
H2    H     0.45639281979958 0.80310567029757 0.58026959023028 
H3    H     0.34918819022778 0.43187306925008 0.51568136998781 
H4    H     0.19969308993480 0.17401954036826 0.61203878992759 
H5    H     0.30000896020129 0.82630921010391 0.88808551014052 
H6    H     0.15091134023298 0.56824253021207 0.98451885005643 
H7    H     0.04390536986319 0.19682201987539 0.91996347028021 
H8    H     0.08924692970679 0.08685458971381 0.76035358961717 
