data_stdin
_audit_creation_method 'critic2'
_audit_creation_date 2023-8-11
_chemical_formula_sum 'C10 H8'
_cell_formula_units_Z 8
_cell_length_a        10.7156052383
_cell_length_b        10.9572747000
_cell_length_c        13.2457344231
_cell_angle_alpha        90.0000
_cell_angle_beta       101.0194
_cell_angle_gamma        90.0000
_cell_volume          1526.557762
_space_group_crystal_system monoclinic
_space_group_IT_number 15
_space_group_name_H-M_alt 'C2/c'
_space_group_name_Hall '-C 2yc'
loop_
_symmetry_equiv_pos_site_id
_symmetry_equiv_pos_as_xyz
 1 'x,y,z'
 2 '-x,-y,-z'
 3 '-x,y,-1/2-z'
 4 '-1/2+x,-1/2-y,-1/2+z'
 5 '-1/2+x,-1/2+y,z'
 6 '-1/2-x,-1/2-y,-z'
 7 '-1/2-x,-1/2+y,-1/2-z'
 8 'x,-y,-1/2+z'
loop_
_atom_site_label
_atom_site_type_symbol
_atom_site_fract_x
_atom_site_fract_y
_atom_site_fract_z
C1    C     0.13001060005528 0.26446859955702 0.86033399983810 
C2    C     0.20248046957337 0.35771391011511 0.83207739981786 
C3    C     0.33101465983943 0.33719024955628 0.82526550972173 
C4    C     0.38554756026975 0.22411551039276 0.84827677993183 
C5    C     0.31393460007585 0.12638765033385 0.87878738967915 
C6    C     0.18297771969352 0.14681537004799 0.88401703033854 
C7    C     0.11107765034736 0.04886789031442 0.91333939970892 
C8    C     0.16596373021441 0.93620808014548 0.93797410971647 
C9    C     0.29526870975997 0.91640751027101 0.93382465007489 
C10   C     0.36734542979344 0.00935309011791 0.90429223998118 
H1    H     0.03062088969312 0.27952674998368 0.86453969004251 
H2    H     0.16152806030028 0.44787672986267 0.81431794970323 
H3    H     0.38632504029076 0.41118733043863 0.80103515982011 
H4    H     0.48462359013212 0.20817971985545 0.84316379034392 
H5    H     0.01136417999353 0.06407305974218 0.91626297996202 
H6    H     0.10897821031180 0.86194753003128 0.95972948966673 
H7    H     0.33736488979867 0.82681724028781 0.95259273019648 
H8    H     0.46682549003087 0.99414614973293 0.90054264016305 
