data_stdin
_audit_creation_method 'critic2'
_audit_creation_date 2023-8-11
_chemical_formula_sum 'C10 H8'
_cell_formula_units_Z 8
_cell_length_a         7.1190088200
_cell_length_b        14.3998758702
_cell_length_c        14.5090303902
_cell_angle_alpha        89.9994
_cell_angle_beta        90.0000
_cell_angle_gamma        90.0000
_cell_volume          1487.361959
_space_group_crystal_system orthorhombic
_space_group_IT_number 56
_space_group_name_H-M_alt 'Pccn'
_space_group_name_Hall '-P 2ab 2ac'
loop_
_symmetry_equiv_pos_site_id
_symmetry_equiv_pos_as_xyz
 1 'x,y,z'
 2 '-x,-y,-z'
 3 '-1/2-x,-1/2-y,z'
 4 '-1/2+x,-1/2+y,-z'
 5 '-1/2+x,-y,-1/2-z'
 6 '-1/2-x,y,-1/2+z'
 7 '-x,-1/2+y,-1/2-z'
 8 'x,-1/2-y,-1/2+z'
loop_
_atom_site_label
_atom_site_type_symbol
_atom_site_fract_x
_atom_site_fract_y
_atom_site_fract_z
C1    C     0.00331974993817 0.23742065030752 0.31771623031352 
C2    C     0.99753107060765 0.23128179999074 0.41245870031199 
C3    C     0.93775017065313 0.14843911976595 0.45585416029693 
C4    C     0.88443042990729 0.07285650003936 0.40361065996602 
C5    C     0.89156623068514 0.07634547030140 0.30597569978447 
C6    C     0.95292910932350 0.16037375034710 0.26207307978946 
C7    C     0.96478571051807 0.16277958015601 0.16438855001919 
C8    C     0.91946970051203 0.08566034033187 0.11245177993384 
C9    C     0.85697945991565 0.00323235026524 0.15582635967674 
C10   C     0.84290017003027 0.99897594972942 0.25046484031132 
H1    H     0.04753561043873 0.30159961981727 0.28447272979662 
H2    H     0.03914695970166 0.29060688021629 0.45415268010425 
H3    H     0.93132217058042 0.14448979972402 0.53077130019987 
H4    H     0.83780651929908 0.00893856018807 0.43673382023523 
H5    H     0.01102281025737 0.22676872966847 0.13125242020706 
H6    H     0.92882844000092 0.08823177012049 0.03758523027946 
H7    H     0.81721271025222 0.94342953028651 0.11421869969214 
H8    H     0.79267154977037 0.93608695995337 0.28413368976746 
