data_stdin
_audit_creation_method 'critic2'
_audit_creation_date 2023-8-11
_chemical_formula_sum 'C10 H8'
_cell_formula_units_Z 8
_cell_length_a        15.7186358000
_cell_length_b        10.1702821701
_cell_length_c         9.0803383300
_cell_angle_alpha        90.0000
_cell_angle_beta        90.0000
_cell_angle_gamma        90.0002
_cell_volume          1451.609776
_space_group_crystal_system orthorhombic
_space_group_IT_number 61
_space_group_name_H-M_alt 'Pbca'
_space_group_name_Hall '-P 2ac 2ab'
loop_
_symmetry_equiv_pos_site_id
_symmetry_equiv_pos_as_xyz
 1 'x,y,z'
 2 '-x,-y,-z'
 3 '-x,-1/2+y,-1/2-z'
 4 'x,-1/2-y,-1/2+z'
 5 '-1/2-x,-y,-1/2+z'
 6 '-1/2+x,y,-1/2-z'
 7 '-1/2+x,-1/2-y,-z'
 8 '-1/2-x,-1/2+y,z'
loop_
_atom_site_label
_atom_site_type_symbol
_atom_site_fract_x
_atom_site_fract_y
_atom_site_fract_z
C1    C     0.08197476971611 0.96929773969107 0.25177544974578 
C2    C     0.99507711998549 0.98771325959970 0.25103881992110 
C3    C     0.95793994024866 0.08864851011705 0.33699456963981 
C4    C     0.00821266007791 0.16961116025348 0.42188869989277 
C5    C     0.09796533026525 0.15425434996653 0.42380171011276 
C6    C     0.13578109007997 0.05167783972040 0.33705552044895 
C7    C     0.22548869029253 0.03535298962298 0.34051925030570 
C8    C     0.27557587001604 0.11695923040241 0.42558460003756 
C9    C     0.23820960026232 0.21806225963045 0.51095322959490 
C10   C     0.15123697995396 0.23606426982278 0.51037230978121 
H1    H     0.11060872978491 0.88991267017788 0.18844698992749 
H2    H     0.95444161003492 0.92221777009442 0.18739937042716 
H3    H     0.88910342969865 0.09989436958870 0.33790613979404 
H4    H     0.97991881002532 0.24537976990776 0.49126313992275 
H5    H     0.25403231987310 0.95689637971324 0.27529300008478 
H6    H     0.34427508005985 0.10321108962516 0.42749633958630 
H7    H     0.27793096006684 0.28255008048609 0.57747375998910 
H8    H     0.12251147973293 0.31327080040048 0.57703953039736 
