data_stdin
_audit_creation_method 'critic2'
_audit_creation_date 2023-8-11
_chemical_formula_sum 'C10 H8'
_cell_formula_units_Z 4
_cell_length_a        14.7096838680
_cell_length_b         6.0215492711
_cell_length_c         8.0760645205
_cell_angle_alpha        90.0002
_cell_angle_beta        94.7605
_cell_angle_gamma        89.9989
_cell_volume           712.870432
_space_group_crystal_system triclinic
_space_group_IT_number 1
_space_group_name_H-M_alt 'P 1'
_space_group_name_Hall 'P 1'
loop_
_symmetry_equiv_pos_site_id
_symmetry_equiv_pos_as_xyz
 1 'x,y,z'
loop_
_atom_site_label
_atom_site_type_symbol
_atom_site_fract_x
_atom_site_fract_y
_atom_site_fract_z
C1    C     0.27670520002748 0.99586786989627 0.13808559958685 
C2    C     0.77670523013494 0.49586794047610 0.13808562044040 
C3    C     0.72329913024563 0.99586820037813 0.86191733049665 
C4    C     0.22329897018712 0.49586800026355 0.86191720997034 
C5    C     0.36748039005176 0.02831498973414 0.11379869947791 
C6    C     0.86748040970516 0.52831514999186 0.11379864941976 
C7    C     0.63252374985080 0.02831020997964 0.88620610943027 
C8    C     0.13252358028909 0.52831009954292 0.88620585963640 
C9    C     0.41264808030060 0.22452966067498 0.17180527939319 
C10   C     0.91264806967303 0.72452989068216 0.17180513955656 
C11   C     0.58735319004181 0.22452110994315 0.82819888055829 
C12   C     0.08735309006932 0.72452105929166 0.82819862042627 
C13   C     0.36627193973565 0.38575680031677 0.25233447991000 
C14   C     0.86627192026586 0.88575701039554 0.25233433996678 
C15   C     0.63372638993061 0.38574953994610 0.74766684021838 
C16   C     0.13372635032063 0.88574946936621 0.74766669009711 
C17   C     0.27278250997089 0.35760060069392 0.27900442057386 
C18   C     0.77278251016253 0.85760070946988 0.27900436034626 
C19   C     0.72721601003739 0.35759874035604 0.72099509035056 
C20   C     0.22721599028717 0.85759859006251 0.72099508949138 
C21   C     0.22721795985735 0.15813580961295 0.22099477036703 
C22   C     0.72721797971009 0.65813586026436 0.22099478985512 
C23   C     0.77278355028415 0.15813808014568 0.77900574006203 
C24   C     0.27278347020412 0.65813787006691 0.77900575958743 
C25   C     0.13372665033380 0.12998386968792 0.24765635055570 
C26   C     0.63372668984764 0.62998386055409 0.24765644975948 
C27   C     0.86627504020238 0.12999152033152 0.75234230958429 
C28   C     0.36627497992482 0.62999125046756 0.75234250941758 
C29   C     0.08735123007806 0.29120860961578 0.32818773051453 
C30   C     0.58735127016305 0.79120857058932 0.32818785952973 
C31   C     0.91264751977438 0.29121750079802 0.67180804011877 
C32   C     0.41264753989219 0.79121723923760 0.67180838994370 
C33   C     0.13252127990895 0.48741701971391 0.38620560001619 
C34   C     0.63252130027584 0.98741702054429 0.38620568036143 
C35   C     0.86747460994945 0.48742212994559 0.61378952051013 
C36   C     0.36747467977735 0.98742191986689 0.61378983988765 
C37   C     0.22329595999770 0.51986486029737 0.36191971953927 
C38   C     0.72329595986928 0.01986493918072 0.36191970028907 
C39   C     0.77669975966565 0.51986492007630 0.63807733966684 
C40   C     0.27669980974328 0.01986475981858 0.63807747997893 
H1    H     0.24188097018029 0.84517085933635 0.09348466939641 
H2    H     0.74188102973449 0.34517088009514 0.09348476014871 
H3    H     0.75812542974818 0.84517383994184 0.90651860016441 
H4    H     0.25812523002851 0.34517358004201 0.90651849033684 
H5    H     0.40425351979694 0.90336327073927 0.04827532054452 
H6    H     0.90425355007005 0.40336343930051 0.04827528054921 
H7    H     0.59575300967062 0.90335748038055 0.95173204016989 
H8    H     0.09575278994929 0.40335736994380 0.95173168048816 
H9    H     0.48447218996645 0.24658236009677 0.15255640983311 
H10   H     0.98447218023707 0.74658265985342 0.15255621039824 
H11   H     0.51552912030095 0.24657020029309 0.84744958000891 
H12   H     0.01552900009643 0.74657020942683 0.84744921034973 
H13   H     0.40031780967031 0.53758055954371 0.29686112955289 
H14   H     0.90031775981045 0.03758081944352 0.29686092963442 
H15   H     0.59967833994096 0.53757003039960 0.70313858981475 
H16   H     0.09967834982998 0.03757001960494 0.70313842042026 
H17   H     0.09968084973070 0.97816734945373 0.20311447037345 
H18   H     0.59968090017239 0.47816730046307 0.20311461938315 
H19   H     0.90032302033310 0.97817824065495 0.79688578061337 
H20   H     0.40032292007903 0.47817791930925 0.79688599983463 
H21   H     0.01552580996331 0.26916845015429 0.34743156968653 
H22   H     0.51552585997585 0.76916834968190 0.34743178947686 
H23   H     0.98447290024688 0.26918094044788 0.65256234999545 
H24   H     0.48447293033667 0.76918064069137 0.65256284027041 
H25   H     0.09574680019020 0.61236753968200 0.45172780030282 
H26   H     0.59574682997062 0.11236751061975 0.45172791056601 
H27   H     0.90424670983696 0.61237374023125 0.54826487036252 
H28   H     0.40424684018111 0.11237353015259 0.54826531962241 
H29   H     0.25812077973885 0.67056096079228 0.40652092010933 
H30   H     0.75812077993057 0.17056105960403 0.40652085988172 
H31   H     0.74187287028287 0.67055839037643 0.59347579961623 
H32   H     0.24187297007069 0.17055826997552 0.59347590948089 
