data_stdin
_audit_creation_method 'critic2'
_audit_creation_date 2023-8-11
_chemical_formula_sum 'C10 H8'
_cell_formula_units_Z 4
_cell_length_a        30.4871771001
_cell_length_b         4.4415444801
_cell_length_c         5.7856298187
_cell_angle_alpha        90.0001
_cell_angle_beta        89.9970
_cell_angle_gamma        89.9998
_cell_volume           783.433019
_space_group_crystal_system orthorhombic
_space_group_IT_number 32
_space_group_name_H-M_alt 'Pba2'
_space_group_name_Hall 'P 2 -2ab'
loop_
_symmetry_equiv_pos_site_id
_symmetry_equiv_pos_as_xyz
 1 'x,y,z'
 2 '-x,-y,z'
 3 '-1/2+x,-1/2-y,z'
 4 '-1/2-x,-1/2+y,z'
loop_
_atom_site_label
_atom_site_type_symbol
_atom_site_fract_x
_atom_site_fract_y
_atom_site_fract_z
C1    C     0.15911264007320 0.78473821890118 0.00445113916547 
C2    C     0.19626782995411 0.73189255008912 0.87485769083398 
C3    C     0.20149777016304 0.87160871080729 0.65669258923722 
C4    C     0.16974156997669 0.06382466922891 0.57277841954920 
C5    C     0.13121171991732 0.12365492892441 0.70243923006536 
C6    C     0.12573222011222 0.98060234069230 0.92292169056151 
C7    C     0.08704704013732 0.03933050914825 0.05178982945387 
C8    C     0.05538573001785 0.23276331085847 0.96825270930333 
C9    C     0.06106068985600 0.37643957954838 0.75192451976713 
C10   C     0.09811263986046 0.32227411024438 0.62199777010095 
H1    H     0.15477094989036 0.67521327925194 0.17133493922068 
H2    H     0.22149645000423 0.57871480974353 0.93762867021380 
H3    H     0.23088799003637 0.82600201983805 0.55554771956432 
H4    H     0.17371711993271 0.17149881975700 0.40479813079238 
H5    H     0.08284182001384 0.92994297020571 0.21892899961836 
H6    H     0.02588547989179 0.27594786090042 0.06927869942436 
H7    H     0.03657524991187 0.53592185922752 0.69054647077011 
H8    H     0.10270323005950 0.43390938940338 0.45614321952469 
