data_stdin
_audit_creation_method 'critic2'
_audit_creation_date 2023-8-11
_chemical_formula_sum 'C10 H8'
_cell_formula_units_Z 4
_cell_length_a         8.2518501200
_cell_length_b         5.9225518127
_cell_length_c        14.6850066100
_cell_angle_alpha        90.0039
_cell_angle_beta        90.0000
_cell_angle_gamma        90.0000
_cell_volume           717.685787
_space_group_crystal_system orthorhombic
_space_group_IT_number 29
_space_group_name_H-M_alt 'Pca2_1'
_space_group_name_Hall 'P 2c -2ac'
loop_
_symmetry_equiv_pos_site_id
_symmetry_equiv_pos_as_xyz
 1 'x,y,z'
 2 '-x,-y,-1/2+z'
 3 '-1/2-x,y,-1/2+z'
 4 '-1/2+x,-y,z'
loop_
_atom_site_label
_atom_site_type_symbol
_atom_site_fract_x
_atom_site_fract_y
_atom_site_fract_z
C1    C     0.02496330994663 0.49581274987640 0.99769378989793 
C2    C     0.07501122025491 0.43767100006057 0.08420672016289 
C3    C     0.02965547953362 0.22758488051880 0.12265755993584 
C4    C     0.93381736976274 0.07944648059984 0.07404024019798 
C5    C     0.88033287951071 0.13417417962546 0.98477978033364 
C6    C     0.92747004022161 0.34638421990100 0.94567162978594 
C7    C     0.87526854943871 0.39992286062879 0.85609269008061 
C8    C     0.77917670021583 0.25179818035622 0.80765415983206 
C9    C     0.73194641996351 0.04303079980028 0.84644584029024 
C10   C     0.78212810998709 0.98521316038196 0.93297884994174 
H1    H     0.06092046020468 0.65672479941609 0.96808043989527 
H2    H     0.15148384026493 0.55357543042203 0.12239935986318 
H3    H     0.07165672998698 0.18177439004076 0.19056198007153 
H4    H     0.89872413959739 0.91720368028065 0.10296720002180 
H5    H     0.91177442031808 0.56119403960561 0.82690123027271 
H6    H     0.73748078960462 0.29484608003367 0.73951049019199 
H7    H     0.65394401945557 0.92834535973576 0.80836604015113 
H8    H     0.74603226965366 0.82474349045977 0.96280002016121 
