data_stdin
_audit_creation_method 'critic2'
_audit_creation_date 2023-8-11
_chemical_formula_sum 'C10 H8'
_cell_formula_units_Z 4
_cell_length_a         4.8396761648
_cell_length_b        11.4884586207
_cell_length_c        13.0778453112
_cell_angle_alpha        89.9998
_cell_angle_beta        83.0635
_cell_angle_gamma        90.0002
_cell_volume           721.811580
_space_group_crystal_system monoclinic
_space_group_IT_number 14
_space_group_name_H-M_alt 'P2_1/c'
_space_group_name_Hall '-P 2ybc'
loop_
_symmetry_equiv_pos_site_id
_symmetry_equiv_pos_as_xyz
 1 'x,y,z'
 2 '-x,-y,-z'
 3 '-x,-1/2+y,-1/2-z'
 4 'x,-1/2-y,-1/2+z'
loop_
_atom_site_label
_atom_site_type_symbol
_atom_site_fract_x
_atom_site_fract_y
_atom_site_fract_z
C1    C     0.50068926016807 0.24756913982459 0.75545686006377 
C2    C     0.64195342060342 0.24576742007684 0.65744489992152 
C3    C     0.56588238986247 0.32298577015418 0.58126072991189 
C4    C     0.35240155093463 0.40169347043189 0.60489959016192 
C5    C     0.20609011972562 0.40710463995335 0.70561502988027 
C6    C     0.27998149944074 0.32735720973637 0.78237432038106 
C7    C     0.13065145969209 0.33150025987555 0.88267971005033 
C8    C     0.91804305981044 0.41061443042406 0.90598005035345 
C9    C     0.84722025903028 0.49000695020986 0.83067068022302 
C10   C     0.98852364918339 0.48830482999132 0.73268436027897 
H1    H     0.55930157086970 0.18762468018954 0.81372808973133 
H2    H     0.81362147101369 0.18508106959576 0.63923730999278 
H3    H     0.67760870073355 0.31963686015278 0.50379708988082 
H4    H     0.29203725998092 0.46087136978640 0.54628129004822 
H5    H     0.18892906911636 0.27198487003418 0.94144973967302 
H6    H     0.80391873920963 0.41330903981715 0.98289586975730 
H7    H     0.67981655925598 0.55231845006680 0.85009782966359 
H8    H     0.93232467046483 0.54898409976518 0.67452166014896 
