data_stdin
_audit_creation_method 'critic2'
_audit_creation_date 2023-8-11
_chemical_formula_sum 'C10 H8'
_cell_formula_units_Z 16
_cell_length_a        16.0088427215
_cell_length_b        34.0169483724
_cell_length_c         5.5291015331
_cell_angle_alpha        90.0012
_cell_angle_beta        89.9979
_cell_angle_gamma        89.9991
_cell_volume          3010.993746
_space_group_crystal_system orthorhombic
_space_group_IT_number 43
_space_group_name_H-M_alt 'Fdd2'
_space_group_name_Hall 'F 2 -2d'
loop_
_symmetry_equiv_pos_site_id
_symmetry_equiv_pos_as_xyz
 1 'x,y,z'
 2 '-x,-1/2-y,-1/2+z'
 3 '-3/4-x,-3/4+y,-3/4+z'
 4 '-3/4+x,-3/4-y,-3/4+z'
 5 'x,-1/2+y,-1/2+z'
 6 '-x,-y,z'
 7 '-3/4-x,-1/4+y,-1/4+z'
 8 '-3/4+x,-1/4-y,-1/4+z'
 9 '-1/2+x,y,-1/2+z'
 10 '-1/2-x,-1/2-y,z'
 11 '-1/4-x,-3/4+y,-1/4+z'
 12 '-1/4+x,-3/4-y,-1/4+z'
 13 '-1/2+x,-1/2+y,z'
 14 '-1/2-x,-y,-1/2+z'
 15 '-1/4-x,-1/4+y,-3/4+z'
 16 '-1/4+x,-1/4-y,-3/4+z'
loop_
_atom_site_label
_atom_site_type_symbol
_atom_site_fract_x
_atom_site_fract_y
_atom_site_fract_z
C1    C     0.83600158001285 0.53477578001242 0.56061991998499 
C2    C     0.75027118985675 0.53679723012868 0.53846936965821 
C3    C     0.71390402984509 0.55768578014165 0.34366707033866 
C4    C     0.76350081000754 0.57583025009582 0.17297009026341 
C5    C     0.85191755999983 0.57391488007212 0.18948466973440 
C6    C     0.88898846007974 0.55320134992100 0.38872503927605 
C7    C     0.97742735021888 0.55178511988604 0.40680825044053 
C8    C     0.02725270976166 0.56927246007062 0.23431565990158 
C9    C     0.99067380005046 0.58896253995974 0.03495572048959 
C10   C     0.90501074969317 0.59139171989151 0.01399017964695 
H1    H     0.86395634970846 0.51917385013425 0.71239648088654 
H2    H     0.71082759976194 0.52209487010392 0.67112028010004 
H3    H     0.64618723000525 0.55903809001858 0.32698766004830 
H4    H     0.73551784987392 0.59182106995884 0.02289121929510 
H5    H     0.00540714013990 0.53670762991455 0.56057153009188 
H6    H     0.09493070987727 0.56817902000797 0.25231903047425 
H7    H     0.02994371993416 0.60260744994688 0.89749423952751 
H8    H     0.87712765027221 0.60636728000176 0.86003928087336 
