data_stdin
_audit_creation_method 'critic2'
_audit_creation_date 2023-8-11
_chemical_formula_sum 'C10 H8'
_cell_formula_units_Z 16
_cell_length_a        27.6601371843
_cell_length_b        27.6784692867
_cell_length_c         3.9237098651
_cell_angle_alpha        89.9563
_cell_angle_beta        89.9967
_cell_angle_gamma        90.0100
_cell_volume          3003.953123
_space_group_crystal_system triclinic
_space_group_IT_number 2
_space_group_name_H-M_alt 'P-1'
_space_group_name_Hall '-P 1'
loop_
_symmetry_equiv_pos_site_id
_symmetry_equiv_pos_as_xyz
 1 'x,y,z'
 2 '-x,-y,-z'
 3 '-1/2+x,-1/2+y,-1/2+z'
 4 '-1/2-x,-1/2-y,-1/2-z'
loop_
_atom_site_label
_atom_site_type_symbol
_atom_site_fract_x
_atom_site_fract_y
_atom_site_fract_z
C1    C     0.20217387983901 0.80232415988317 0.31991439059160 
C2    C     0.94780218995755 0.45200896015938 0.57020030938684 
C3    C     0.05221594005319 0.04793744000297 0.57015672016681 
C4    C     0.79785453991547 0.69771924002539 0.31973293933396 
C5    C     0.17626831995007 0.76081818007062 0.38658735909794 
C6    C     0.98929805006125 0.42607945012931 0.63679637013955 
C7    C     0.01071444012767 0.07382941990769 0.63703688055657 
C8    C     0.82378411995784 0.73920052011503 0.38619922971473 
C9    C     0.12664743998524 0.75812786015050 0.30141198953919 
C10   C     0.99195000013382 0.37650304011900 0.55144706122801 
C11   C     0.00803796990513 0.12343149982312 0.55197152030819 
C12   C     0.87341016014884 0.74186588012655 0.30105873028610 
C13   C     0.10376618002750 0.79694188998656 0.15151110906098 
C14   C     0.95310563016295 0.35369091988769 0.40144465910172 
C15   C     0.04687344005392 0.14631038007236 0.40207788058257 
C16   C     0.89626747008956 0.70305523990212 0.15133167903819 
C17   C     0.12923891986690 0.84038721988264 0.08392355124240 
C18   C     0.90966471986885 0.37918563983010 0.33398002976017 
C19   C     0.09032202988071 0.12085608016361 0.33438601053291 
C20   C     0.87076533014968 0.65963927015805 0.08390218940710 
C21   C     0.17967939000732 0.84307424013714 0.16786532987442 
C22   C     0.90701918993481 0.42958026994826 0.41810030087301 
C23   C     0.09298655987647 0.07043148012097 0.41809914915378 
C24   C     0.82032494984038 0.65697273003217 0.16788864949935 
C25   C     0.20517605992832 0.88642369996259 0.09621883016772 
C26   C     0.86367054984157 0.45509777001909 0.34668924916648 
C27   C     0.13633727015196 0.04495312994267 0.34632487899997 
C28   C     0.79480130000014 0.61365019011637 0.09643873126981 
C29   C     0.18189063988390 0.92563814014565 0.95472475950451 
C30   C     0.82441110993891 0.43187562012081 0.20529686056755 
C31   C     0.17558427994030 0.06823935002564 0.20499957078841 
C32   C     0.81805990005331 0.57444329982455 0.95502263961146 
C33   C     0.13202913000054 0.92315078992488 0.87739690986836 
C34   C     0.82685851013610 0.38205734004543 0.12778913082055 
C35   C     0.17312147991424 0.11808663992466 0.12794492108874 
C36   C     0.86792103009359 0.57691307015070 0.87757309102013 
C37   C     0.10642723982845 0.88132797017226 0.93772560024331 
C38   C     0.86868389016510 0.35643781002738 0.18782901881815 
C39   C     0.13129395017536 0.14367198013376 0.18835674058050 
C40   C     0.89354845016373 0.61870957986079 0.93776968955387 
H1    H     0.24037399986573 0.80425844992872 0.38620285072386 
H2    H     0.94590052012298 0.49017558012063 0.63661395955907 
H3    H     0.05412888987916 0.00974887988888 0.63631029052280 
H4    H     0.75965252013380 0.69580148989078 0.38602777051237 
H5    H     0.19378910005246 0.73005420997116 0.50788109102872 
H6    H     0.02008089998658 0.44354872991849 0.75818961938733 
H7    H     0.97994086996709 0.05630713994201 0.75838580954441 
H8    H     0.80627925988452 0.76996711987651 0.50725570901865 
H9    H     0.10664512012320 0.72510558988721 0.35433166980060 
H10   H     0.02496807008610 0.35648775002675 0.60433014957663 
H11   H     0.97501231993073 0.14341435984358 0.60501239892046 
H12   H     0.89343295984305 0.77486669010234 0.35385781912084 
H13   H     0.06564068001004 0.79472851013301 0.08227843091923 
H14   H     0.95527906985713 0.31560087999704 0.33203585981321 
H15   H     0.04468640016466 0.18442406004330 0.33293681012664 
H16   H     0.93439631989509 0.70525008016089 0.08211611920130 
H17   H     0.24366361987764 0.88834138004047 0.15280633121722 
H18   H     0.86179738995173 0.49355432013954 0.40339604904921 
H19   H     0.13822324007723 0.00647525014627 0.40267777908130 
H20   H     0.75631250988918 0.61175093988580 0.15306407949157 
H21   H     0.20181954990273 0.95872324003729 0.90036323016192 
H22   H     0.79132527986797 0.45181736995082 0.15109347013660 
H23   H     0.20867116985505 0.04832628004134 0.15050573878315 
H24   H     0.79811061000673 0.54137836000635 0.90081848964023 
H25   H     0.11393777996358 0.95433716983810 0.76706995028025 
H26   H     0.79563450012545 0.36400428998186 0.01768173995113 
H27   H     0.20433540017192 0.13619145003936 0.01788987977760 
H28   H     0.88598827994256 0.54574001014615 0.76719177021437 
H29   H     0.06820684003944 0.87928648012247 0.87296497126659 
H30   H     0.87068635995257 0.31825007014965 0.12294164887878 
H31   H     0.12927658003743 0.18188255983576 0.12378667993167 
H32   H     0.93176824991343 0.62074255003379 0.87294411917140 
