data_stdin
_audit_creation_method 'critic2'
_audit_creation_date 2023-8-11
_chemical_formula_sum 'C10 H8'
_cell_formula_units_Z 4
_cell_length_a         7.3320991243
_cell_length_b         7.1617973714
_cell_length_c        14.1146061941
_cell_angle_alpha        89.9988
_cell_angle_beta        76.1397
_cell_angle_gamma        89.9996
_cell_volume           719.591424
_space_group_crystal_system monoclinic
_space_group_IT_number 14
_space_group_name_H-M_alt 'P2_1/c'
_space_group_name_Hall '-P 2ybc'
loop_
_symmetry_equiv_pos_site_id
_symmetry_equiv_pos_as_xyz
 1 'x,y,z'
 2 '-x,-y,-z'
 3 '-x,-1/2+y,-1/2-z'
 4 'x,-1/2-y,-1/2+z'
loop_
_atom_site_label
_atom_site_type_symbol
_atom_site_fract_x
_atom_site_fract_y
_atom_site_fract_z
C1    C     0.96248431035112 0.05419509058192 0.73446908963483 
C2    C     0.77259102922591 0.07414495003814 0.77488643021977 
C3    C     0.65683348964558 0.16615086068467 0.72237296970479 
C4    C     0.73183658940622 0.23224784977341 0.62937210010127 
C5    C     0.92602131009796 0.21109129980690 0.58515358002061 
C6    C     0.04443530982328 0.12332585965230 0.63961934005229 
C7    C     0.23986624975781 0.10886241013510 0.59680625008809 
C8    C     0.31480859014994 0.17618879974823 0.50400029992994 
C9    C     0.19692344963834 0.25762519012154 0.44941750027903 
C10   C     0.00675964032603 0.27421084016722 0.48906224014927 
H1    H     0.05205827058954 0.98382966955210 0.77468955998895 
H2    H     0.71140399067188 0.01836673024502 0.84736731972485 
H3    H     0.50771227035939 0.18446385939991 0.75537193995648 
H4    H     0.64256702061950 0.30153717041948 0.58854578980137 
H5    H     0.32950627042282 0.04292666981486 0.63857501976680 
H6    H     0.46493070955628 0.16387891967642 0.47186707007323 
H7    H     0.25593711035637 0.30553152032545 0.37525649997960 
H8    H     0.91603435018156 0.33563526975072 0.44673121028382 
