data_stdin
_audit_creation_method 'critic2'
_audit_creation_date 2023-8-11
_chemical_formula_sum 'C10 H8'
_cell_formula_units_Z 8
_cell_length_a        26.6413125020
_cell_length_b         7.0370088807
_cell_length_c         7.9511972296
_cell_angle_alpha        89.9997
_cell_angle_beta        86.8759
_cell_angle_gamma        90.0006
_cell_volume          1488.436514
_space_group_crystal_system monoclinic
_space_group_IT_number 15
_space_group_name_H-M_alt 'C2/c'
_space_group_name_Hall '-C 2yc'
loop_
_symmetry_equiv_pos_site_id
_symmetry_equiv_pos_as_xyz
 1 'x,y,z'
 2 '-x,-y,-z'
 3 '-x,y,-1/2-z'
 4 'x,-y,-1/2+z'
 5 '-1/2+x,-1/2+y,z'
 6 '-1/2-x,-1/2-y,-z'
 7 '-1/2-x,-1/2+y,-1/2-z'
 8 '-1/2+x,-1/2-y,-1/2+z'
loop_
_atom_site_label
_atom_site_type_symbol
_atom_site_fract_x
_atom_site_fract_y
_atom_site_fract_z
C1    C     0.11616311557644 0.11410756249043 0.58170136331684 
C2    C     0.06520542861579 0.13978860436001 0.61383612796326 
C3    C     0.03703453190560 0.24949747027264 0.50294129585065 
C4    C     0.06045978368088 0.33138674684545 0.36170636121076 
C5    C     0.11269777115599 0.30540132260381 0.32388066662797 
C6    C     0.14114873063815 0.19442134029213 0.43644094389870 
C7    C     0.19338764311914 0.16830057087467 0.39843342966756 
C8    C     0.21657459328291 0.24801163432861 0.25577119392099 
C9    C     0.18831423445575 0.35662148435557 0.14442306168856 
C10   C     0.13750113268277 0.38442621522792 0.17780805559430 
H1    H     0.13790795341414 0.03176022761487 0.66776013306928 
H2    H     0.04669285710076 0.07438155166158 0.72482417480059 
H3    H     0.99676257005073 0.26863566826592 0.52903271312559 
H4    H     0.03939099258481 0.41727341394680 0.27602103166604 
H5    H     0.21479794234018 0.08402309217254 0.48436971328985 
H6    H     0.25675770727365 0.22746447377300 0.22896431815089 
H7    H     0.20659327225995 0.41879637874184 0.03159789051510 
H8    H     0.11571519875113 0.46663788583339 0.09175035244022 
