data_stdin
_audit_creation_method 'critic2'
_audit_creation_date 2023-8-11
_chemical_formula_sum 'C10 H8'
_cell_formula_units_Z 4
_cell_length_a         8.2627822127
_cell_length_b         8.9371553400
_cell_length_c        11.0915201395
_cell_angle_alpha        90.0000
_cell_angle_beta        66.4759
_cell_angle_gamma        90.0000
_cell_volume           750.991451
_space_group_crystal_system monoclinic
_space_group_IT_number 9
_space_group_name_H-M_alt 'Cc'
_space_group_name_Hall 'C -2yc'
loop_
_symmetry_equiv_pos_site_id
_symmetry_equiv_pos_as_xyz
 1 'x,y,z'
 2 'x,-y,-1/2+z'
 3 '-1/2+x,-1/2+y,z'
 4 '-1/2+x,-1/2-y,-1/2+z'
loop_
_atom_site_label
_atom_site_type_symbol
_atom_site_fract_x
_atom_site_fract_y
_atom_site_fract_z
C1    C     0.99179997931472 0.51631336980677 0.99822467030529 
C2    C     0.14380119048834 0.51881510974856 0.02144809968325 
C3    C     0.27925250041250 0.62278697028975 0.95459615975081 
C4    C     0.26049739975949 0.72278210030475 0.86635705983143 
C5    C     0.10406315994407 0.72491543030060 0.84239713967104 
C6    C     0.96674957944527 0.61900073008382 0.90944559047863 
C7    C     0.81077939005954 0.62135370043733 0.88476681041321 
C8    C     0.79006314969394 0.72438895999981 0.79940026023589 
C9    C     0.92448666978155 0.82993700999664 0.73495932021716 
C10   C     0.07848994043597 0.82945408994257 0.75527907966239 
H1    H     0.88934170994597 0.43403739037019 0.04771618964231 
H2    H     0.16056726982137 0.43862093018004 0.08951805040443 
H3    H     0.40000665036852 0.62284961984335 0.97183255971541 
H4    H     0.36506562984756 0.80226893945309 0.81385106968810 
H5    H     0.70722781994269 0.54017940040950 0.93487408032161 
H6    H     0.66943361982874 0.72596148958799 0.78188245957436 
H7    H     0.90438612003044 0.91343085024145 0.67091237989557 
H8    H     0.18276853971287 0.90997948998079 0.70561849966206 
