data_stdin
_audit_creation_method 'critic2'
_audit_creation_date 2023-8-11
_chemical_formula_sum 'C10 H8'
_cell_formula_units_Z 8
_cell_length_a        14.6158141213
_cell_length_b        14.3482665706
_cell_length_c         7.2181766300
_cell_angle_alpha        90.0004
_cell_angle_beta        89.9992
_cell_angle_gamma        89.9998
_cell_volume          1513.735349
_space_group_crystal_system orthorhombic
_space_group_IT_number 60
_space_group_name_H-M_alt 'Pbcn'
_space_group_name_Hall '-P 2n 2ab'
loop_
_symmetry_equiv_pos_site_id
_symmetry_equiv_pos_as_xyz
 1 'x,y,z'
 2 '-x,-y,-z'
 3 '-1/2-x,-1/2-y,-1/2+z'
 4 '-1/2+x,-1/2+y,-1/2-z'
 5 '-1/2+x,-1/2-y,-z'
 6 '-1/2-x,-1/2+y,z'
 7 '-x,y,-1/2-z'
 8 'x,-y,-1/2+z'
loop_
_atom_site_label
_atom_site_type_symbol
_atom_site_fract_x
_atom_site_fract_y
_atom_site_fract_z
C1    C     0.02784451997256 0.72280209975449 0.00580541016078 
C2    C     0.04223102014914 0.62841464991543 0.98514925056974 
C3    C     0.11525092980202 0.59507855989609 0.87468470989863 
C4    C     0.17309060966000 0.65681264026689 0.78678194930871 
C5    C     0.16113541011842 0.75446029007584 0.80797683049918 
C6    C     0.08702218013355 0.78828048033722 0.92005441957077 
C7    C     0.07590117016615 0.88594280008554 0.94240137950273 
C8    C     0.13481920026241 0.94765962979633 0.85728488983520 
C9    C     0.20745730978409 0.91417460002822 0.74608750004813 
C10   C     0.22066467016775 0.81974120967347 0.72300610968417 
H1    H     0.97044338024740 0.74806500990467 0.08796489030327 
H2    H     0.99651949010634 0.57927634986382 0.05312437049958 
H3    H     0.12561011019339 0.52028620973624 0.85905985024202 
H4    H     0.22918687008223 0.63196025995641 0.70021953039622 
H5    H     0.01969651994932 0.91137204968015 0.02775365993026 
H6    H     0.12605748033934 0.02246440992152 0.87576340055785 
H7    H     0.25285600993546 0.96312604975967 0.67677254966322 
H8    H     0.27690522032784 0.79417139012456 0.63845662958628 
