data_stdin
_audit_creation_method 'critic2'
_audit_creation_date 2023-8-11
_chemical_formula_sum 'C10 H8'
_cell_formula_units_Z 4
_cell_length_a         4.0696547420
_cell_length_b        24.3379209101
_cell_length_c         7.5266793118
_cell_angle_alpha        90.0078
_cell_angle_beta        79.8649
_cell_angle_gamma        89.9819
_cell_volume           733.861484
_space_group_crystal_system triclinic
_space_group_IT_number 2
_space_group_name_H-M_alt 'P-1'
_space_group_name_Hall '-P 1'
loop_
_symmetry_equiv_pos_site_id
_symmetry_equiv_pos_as_xyz
 1 'x,y,z'
 2 '-x,-y,-z'
loop_
_atom_site_label
_atom_site_type_symbol
_atom_site_fract_x
_atom_site_fract_y
_atom_site_fract_z
C1    C     0.22106460993263 0.94269098019476 0.90321684026710 
C2    C     0.77911582097389 0.44270001009982 0.59673427957963 
C3    C     0.34817339006415 0.95335027980985 0.72443377973739 
C4    C     0.65195633066061 0.45335532997890 0.77553463005748 
C5    C     0.28221333969985 0.91708375987499 0.58807046005043 
C6    C     0.71804853971937 0.41708305987746 0.91183639995372 
C7    C     0.09081603919345 0.87070987985192 0.63265467058592 
C8    C     0.90961904948786 0.37070829015389 0.86717697005373 
C9    C     0.95550544134088 0.85874068994611 0.81530652961763 
C10   C     0.04498839105979 0.35874352990721 0.68450586979202 
C11   C     0.02102474992314 0.89561076985925 0.95354886974864 
C12   C     0.97933252894077 0.39561919017032 0.54632640036274 
C13   C     0.88387331957419 0.88367069016770 0.13609449032054 
C14   C     0.11653190093158 0.38368251000931 0.36376065007687 
C15   C     0.68804379038741 0.83773829009997 0.18027742964523 
C16   C     0.31253438074051 0.33774965015063 0.31950367975558 
C17   C     0.62080704971976 0.80167999012042 0.04354612952272 
C18   C     0.37992289011464 0.30168688001548 0.45617314001856 
C19   C     0.75376943107486 0.81184034007630 0.86530707024540 
C20   C     0.24691450053582 0.31184369019165 0.63442853005359 
H1    H     0.27214475978363 0.97038478018886 0.00868926033899 
H2    H     0.72793731913370 0.47039696005673 0.49130451981321 
H3    H     0.50565927985906 0.98918160986054 0.68782913974398 
H4    H     0.49432040996648 0.48918551980095 0.81219613959725 
H5    H     0.38586237947629 0.92555402999640 0.44732834964845 
H6    H     0.61435413946341 0.42554754005718 0.05259282033906 
H7    H     0.03843738113329 0.84280165010286 0.52775689024922 
H8    H     0.96208618935460 0.34279599997776 0.97203174009782 
H9    H     0.93623020125092 0.91153686996481 0.24106250956724 
H10   H     0.06407445957804 0.41155153984917 0.25883504963046 
H11   H     0.58244274964254 0.82930127996694 0.32083070970410 
H12   H     0.41815350939404 0.32931456013003 0.17893530014793 
H13   H     0.45622584953470 0.76658146000722 0.07907052050307 
H14   H     0.54463412888851 0.26658791004432 0.42058427978473 
H15   H     0.70242757923429 0.78432614010945 0.75958993973603 
H16   H     0.29835755077740 0.28432812997464 0.74010689045450 
