data_stdin
_audit_creation_method 'critic2'
_audit_creation_date 2023-8-11
_chemical_formula_sum 'C10 H8'
_cell_formula_units_Z 4
_cell_length_a        15.2559161697
_cell_length_b         5.8735360254
_cell_length_c         8.6594430998
_cell_angle_alpha        90.0008
_cell_angle_beta        89.8598
_cell_angle_gamma        89.9759
_cell_volume           775.937166
_space_group_crystal_system triclinic
_space_group_IT_number 1
_space_group_name_H-M_alt 'P1'
_space_group_name_Hall 'P 1'
loop_
_symmetry_equiv_pos_site_id
_symmetry_equiv_pos_as_xyz
 1 'x,y,z'
loop_
_atom_site_label
_atom_site_type_symbol
_atom_site_fract_x
_atom_site_fract_y
_atom_site_fract_z
C1    C     0.60184713346263 0.28656032120246 0.24906509664927 
C2    C     0.10183674817376 0.21331043663681 0.75283912663814 
C3    C     0.89808645225361 0.78686841244400 0.75161760350671 
C4    C     0.39821641710346 0.71337994892425 0.24771950296897 
C5    C     0.62901167682706 0.22190078839251 0.39441975246820 
C6    C     0.12873602255673 0.27731798035867 0.60698114309291 
C7    C     0.87098432301062 0.72308959386353 0.60605787829086 
C8    C     0.37119676578547 0.77811419481245 0.39337460671021 
C9    C     0.67091937438203 0.00925847368480 0.41690221816172 
C10   C     0.17063137110235 0.48972548082990 0.58352782814099 
C11   C     0.82898124850172 0.51081152616055 0.58300307206649 
C12   C     0.32937930688129 0.99085326633219 0.41630889838454 
C13   C     0.68485643683921 0.86503767475653 0.29359777403653 
C14   C     0.18476030964516 0.63447124780042 0.70635659057806 
C15   C     0.81493007585522 0.36599362194334 0.70594135368561 
C16   C     0.31539851970639 0.13511235483026 0.29316352430397 
C17   C     0.65764104948287 0.92649358575602 0.14259265815105 
C18   C     0.15782740447916 0.57366625554235 0.85785619542143 
C19   C     0.84207482451425 0.42655276757679 0.85713695819562 
C20   C     0.34244888002647 0.07355478889567 0.14184944689933 
C21   C     0.61543162574475 0.14225859272736 0.11967130769222 
C22   C     0.11569416521102 0.35804644823158 0.88178435527619 
C23   C     0.88435265123181 0.64200666094119 0.88065621298757 
C24   C     0.38454608237555 0.85766982220866 0.11846760300335 
C25   C     0.59041756145533 0.20565377039029 0.96798796125130 
C26   C     0.09104402509123 0.29520817947934 0.03395375131459 
C27   C     0.90928612854740 0.70451396857917 0.03254217010259 
C28   C     0.40932480059321 0.79408068773185 0.96649555999250 
C29   C     0.60618723864169 0.06294703689093 0.84455584639824 
C30   C     0.10707928987247 0.43831855248467 0.15689568029330 
C31   C     0.89339172668839 0.56124784594154 0.15559293797442 
C32   C     0.39343292664404 0.93671114734047 0.84321016321365 
C33   C     0.64758490770913 0.84995511035225 0.86723749694268 
C34   C     0.14837578283922 0.65122604340416 0.13322901702268 
C35   C     0.85193004386947 0.34853028196794 0.13232535163208 
C36   C     0.35216526326575 0.14984235616968 0.86634162888079 
C37   C     0.67259400029915 0.78294284425544 0.01337780819554 
C38   C     0.17301876623767 0.71770326023828 0.98659149434432 
C39   C     0.82701004865843 0.28237633921215 0.98597671517016 
C40   C     0.32738744166072 0.21705062684610 0.01277762617067 
H1    H     0.57100767968818 0.45174540420210 0.23148915623914 
H2    H     0.07101204988780 0.04827650293144 0.77112945931751 
H3    H     0.92900968176743 0.95179107633201 0.76960476646121 
H4    H     0.42897679960892 0.54811649974195 0.22979656650404 
H5    H     0.61895278356420 0.33594515105556 0.49216230345597 
H6    H     0.11852187267854 0.16281059145068 0.50963535487292 
H7    H     0.88109819380528 0.83769798888555 0.50865028944943 
H8    H     0.38130623065178 0.66405567542997 0.49100632454921 
H9    H     0.69275955620393 0.95953890617592 0.53169434003631 
H10   H     0.19239321954052 0.53886160375738 0.46839157107790 
H11   H     0.80708357461591 0.46183944544255 0.46809687779935 
H12   H     0.30763946572636 0.04062617855459 0.53133391324425 
H13   H     0.71729256268917 0.70164608412228 0.30983720577353 
H14   H     0.21715998843600 0.79773465638908 0.68932358677424 
H15   H     0.78244521171743 0.20282919545652 0.68923951067929 
H16   H     0.28303146270650 0.29857426009894 0.30978006700456 
H17   H     0.55850477303664 0.36948241053290 0.95054292411203 
H18   H     0.05916987884444 0.13151024664877 0.05215171289566 
H19   H     0.94127038351293 0.86808365847764 0.05042574834937 
H20   H     0.44114964418920 0.63015729417657 0.94870118170251 
H21   H     0.58577151102449 0.11312540464739 0.72905558423624 
H22   H     0.08703822477266 0.38847593653666 0.27281197811432 
H23   H     0.91369725034186 0.61074278980067 0.27127253603968 
H24   H     0.41362861673477 0.88630393519556 0.72746777094182 
H25   H     0.66035852581786 0.73822109953811 0.76920697828601 
H26   H     0.16137797422856 0.76327067741775 0.23088116071627 
H27   H     0.83905951325882 0.23634839339136 0.23006695318671 
H28   H     0.33927999092852 0.26150914837781 0.76843185462361 
H29   H     0.70505198157283 0.61997823180812 0.03104262464896 
H30   H     0.20540068245269 0.88057613980092 0.96814481391555 
H31   H     0.79451168247176 0.11964503330394 0.96784927348886 
H32   H     0.29502025766299 0.38011804331376 0.03079364678245 
