data_stdin
_audit_creation_method 'critic2'
_audit_creation_date 2023-8-11
_chemical_formula_sum 'C10 H8'
_cell_formula_units_Z 8
_cell_length_a         5.9931377879
_cell_length_b        16.0225956440
_cell_length_c        15.4475670820
_cell_angle_alpha        90.0002
_cell_angle_beta        90.0018
_cell_angle_gamma        90.0002
_cell_volume          1483.362258
_space_group_crystal_system orthorhombic
_space_group_IT_number 20
_space_group_name_H-M_alt 'C222_1'
_space_group_name_Hall 'C 2c 2'
loop_
_symmetry_equiv_pos_site_id
_symmetry_equiv_pos_as_xyz
 1 'x,y,z'
 2 '-1/2-x,-1/2-y,-1/2+z'
 3 '-1/2+x,-1/2-y,-z'
 4 '-x,y,-1/2-z'
 5 '-1/2+x,-1/2+y,z'
 6 '-x,-y,-1/2+z'
 7 'x,-y,-z'
 8 '-1/2-x,-1/2+y,-1/2-z'
loop_
_atom_site_label
_atom_site_type_symbol
_atom_site_fract_x
_atom_site_fract_y
_atom_site_fract_z
C1    C     0.14305698069100 0.79405388008477 0.65134514968517 
C2    C     0.00319965043319 0.85666874987845 0.62289184996579 
C3    C     0.79613658926216 0.83704914000707 0.58377598005212 
C4    C     0.73114588041229 0.75491507025028 0.57433601007477 
C5    C     0.87232935054007 0.68899989970579 0.60199312018879 
C6    C     0.08284261936609 0.70897716999093 0.64119953970806 
C7    C     0.22457401064692 0.64293520018415 0.66788354999383 
C8    C     0.16267836962445 0.56088676979867 0.65618112996842 
C9    C     0.95614396039663 0.54116337027946 0.61670322970616 
C10   C     0.81384387942911 0.60382770989143 0.59030908988618 
H1    H     0.30214286925738 0.80899180981961 0.68181921031828 
H2    H     0.05227534048927 0.92172381999793 0.63040759000229 
H3    H     0.68906610060677 0.88680263015987 0.55968192985133 
H4    H     0.57204416048416 0.73964953026188 0.54425718010662 
H5    H     0.38400030945358 0.65828874024945 0.69765512008984 
H6    H     0.27171736974823 0.51081098002712 0.67804549992839 
H7    H     0.91024753035070 0.47607371972199 0.60702050009609 
H8    H     0.65446249024200 0.58924212009118 0.55986063008249 
