data_stdin
_audit_creation_method 'critic2'
_audit_creation_date 2023-8-11
_chemical_formula_sum 'C10 H8'
_cell_formula_units_Z 8
_cell_length_a        26.5443306967
_cell_length_b         5.8149309330
_cell_length_c        10.6870626645
_cell_angle_alpha        89.9990
_cell_angle_beta        63.8199
_cell_angle_gamma        89.9942
_cell_volume          1480.356655
_space_group_crystal_system monoclinic
_space_group_IT_number 15
_space_group_name_H-M_alt 'C2/c'
_space_group_name_Hall '-C 2yc'
loop_
_symmetry_equiv_pos_site_id
_symmetry_equiv_pos_as_xyz
 1 'x,y,z'
 2 '-1/2-x,-1/2-y,-z'
 3 '-1/2-x,-1/2+y,-1/2-z'
 4 'x,-y,-1/2+z'
 5 '-1/2+x,-1/2+y,z'
 6 '-x,-y,-z'
 7 '-x,y,-1/2-z'
 8 '-1/2+x,-1/2-y,-1/2+z'
loop_
_atom_site_label
_atom_site_type_symbol
_atom_site_fract_x
_atom_site_fract_y
_atom_site_fract_z
C1    C     0.31550087005252 0.07724218938902 0.62289567002380 
C2    C     0.35091655007601 0.91521972035561 0.63554979978684 
C3    C     0.40910490021704 0.92118097993980 0.54521950955303 
C4    C     0.43089997004515 0.08827076038934 0.44367841030077 
C5    C     0.39553967987350 0.25705869960315 0.42734551006415 
C6    C     0.33654564979861 0.25195691045921 0.51972573027079 
C7    C     0.30115474014474 0.42103513072661 0.50403413971127 
C8    C     0.32258591003173 0.58612666968609 0.40122734979964 
C9    C     0.38056365009215 0.59043612922434 0.30939333036212 
C10   C     0.41606444991350 0.42973791947409 0.32274940006927 
H1    H     0.27056433009741 0.07300413971466 0.69151443024589 
H2    H     0.33469474991726 0.78060300967443 0.71418373044271 
H3    H     0.43639882988001 0.79094255028777 0.55594592027858 
H4    H     0.47574076999671 0.09096562040393 0.37414452977431 
H5    H     0.25639465001497 0.41638719009149 0.57377103961034 
H6    H     0.29504847012211 0.71424436974054 0.38974074974218 
H7    H     0.39683459013187 0.72162911010003 0.22868472958300 
H8    H     0.46069790976351 0.43397852992607 0.25183862050404 
