data_stdin
_audit_creation_method 'critic2'
_audit_creation_date 2023-8-11
_chemical_formula_sum 'C10 H8'
_cell_formula_units_Z 8
_cell_length_a         8.6978744206
_cell_length_b         8.2993781003
_cell_length_c        20.8764023901
_cell_angle_alpha        90.0004
_cell_angle_beta        90.0006
_cell_angle_gamma        90.0000
_cell_volume          1507.003784
_space_group_crystal_system orthorhombic
_space_group_IT_number 20
_space_group_name_H-M_alt 'C222_1'
_space_group_name_Hall 'C 2c 2'
loop_
_symmetry_equiv_pos_site_id
_symmetry_equiv_pos_as_xyz
 1 'x,y,z'
 2 '-x,-y,-1/2+z'
 3 '-1/2-x,-1/2+y,-1/2-z'
 4 'x,-y,-z'
 5 '-1/2+x,-1/2+y,z'
 6 '-1/2-x,-1/2-y,-1/2+z'
 7 '-x,y,-1/2-z'
 8 '-1/2+x,-1/2-y,-z'
loop_
_atom_site_label
_atom_site_type_symbol
_atom_site_fract_x
_atom_site_fract_y
_atom_site_fract_z
C1    C     0.29809191043562 0.62298338004778 0.68518529018284 
C2    C     0.29777395955284 0.45956869015223 0.69716624008967 
C3    C     0.19537774986764 0.35680235946671 0.66393202979345 
C4    C     0.09370740034888 0.41912510019851 0.61974634977720 
C5    C     0.08902646944362 0.58717539001090 0.60711711987823 
C6    C     0.19447444948342 0.69128931017167 0.64012486976136 
C7    C     0.19115146038191 0.85906524039293 0.62667451996730 
C8    C     0.08808716007739 0.92171088997524 0.58305087016373 
C9    C     0.98196921017089 0.81950698990952 0.55159621010113 
C10   C     0.98267320026771 0.65618209030009 0.56344121993960 
H1    H     0.37822945957771 0.70256325008810 0.70986696980386 
H2    H     0.37724498011534 0.40802697028986 0.73183055997387 
H3    H     0.19863052989557 0.22771956015149 0.67308097017411 
H4    H     0.01536398959529 0.34021954941288 0.59379717006688 
H5    H     0.27160618945746 0.93766541042512 0.65167114022802 
H6    H     0.08695264979802 0.05051306973392 0.57317339994661 
H7    H     0.89726657005733 0.86992744049816 0.51881622019392 
H8    H     0.89928726021783 0.57799899941759 0.54010523005459 
