data_stdin
_audit_creation_method 'critic2'
_audit_creation_date 2023-8-11
_chemical_formula_sum 'C10 H8'
_cell_formula_units_Z 8
_cell_length_a         7.0337790074
_cell_length_b         7.9742960016
_cell_length_c        26.1697655577
_cell_angle_alpha        89.9999
_cell_angle_beta        90.0021
_cell_angle_gamma        89.9985
_cell_volume          1467.847384
_space_group_crystal_system orthorhombic
_space_group_IT_number 61
_space_group_name_H-M_alt 'Pbca'
_space_group_name_Hall '-P 2ac 2ab'
loop_
_symmetry_equiv_pos_site_id
_symmetry_equiv_pos_as_xyz
 1 'x,y,z'
 2 '-x,-y,-z'
 3 '-1/2-x,-y,-1/2+z'
 4 '-1/2+x,y,-1/2-z'
 5 '-1/2+x,-1/2-y,-z'
 6 '-1/2-x,-1/2+y,z'
 7 '-x,-1/2+y,-1/2-z'
 8 'x,-1/2-y,-1/2+z'
loop_
_atom_site_label
_atom_site_type_symbol
_atom_site_fract_x
_atom_site_fract_y
_atom_site_fract_z
C1    C     0.12899582790664 0.33625645666232 0.11594784897104 
C2    C     0.10136716950208 0.36732619460232 0.06463142889510 
C3    C     0.99654647401399 0.25325346287662 0.03416751200952 
C4    C     0.92005829531066 0.11033971275503 0.05572653019545 
C5    C     0.94699182857642 0.07424074589104 0.10836160916759 
C6    C     0.05447618473787 0.18937702453917 0.13905327939670 
C7    C     0.08372837951634 0.15193341251380 0.19154097885644 
C8    C     0.00830455109642 0.00842489293811 0.21302431686856 
C9    C     0.90154162838170 0.89539942056119 0.18264831455885 
C10   C     0.87237712153515 0.92736687569046 0.13145216471555 
H1    H     0.20821401924842 0.42448226188649 0.13942855518511 
H2    H     0.16093351751473 0.48043538755319 0.04767715130304 
H3    H     0.97640850136414 0.27792035343356 0.99356981478561 
H4    H     0.83876641239657 0.02224602220733 0.03262216416586 
H5    H     0.16944470736406 0.23793118371610 0.21424542678001 
H6    H     0.03245218629969 0.98114137800998 0.25331745167381 
H7    H     0.84283521886016 0.78169541979524 0.19944265283511 
H8    H     0.79241416846459 0.83953538510590 0.10799848723172 
