data_stdin
_audit_creation_method 'critic2'
_audit_creation_date 2023-8-11
_chemical_formula_sum 'C10 H8'
_cell_formula_units_Z 8
_cell_length_a        32.4476657986
_cell_length_b         7.5628956861
_cell_length_c         5.9426090142
_cell_angle_alpha        90.0005
_cell_angle_beta        90.0064
_cell_angle_gamma        90.0058
_cell_volume          1458.306202
_space_group_crystal_system orthorhombic
_space_group_IT_number 56
_space_group_name_H-M_alt 'Pccn'
_space_group_name_Hall '-P 2ab 2ac'
loop_
_symmetry_equiv_pos_site_id
_symmetry_equiv_pos_as_xyz
 1 'x,y,z'
 2 '-x,-y,-z'
 3 '-1/2-x,-1/2-y,z'
 4 '-1/2+x,-1/2+y,-z'
 5 '-x,-1/2+y,-1/2-z'
 6 'x,-1/2-y,-1/2+z'
 7 '-1/2+x,-y,-1/2-z'
 8 '-1/2-x,y,-1/2+z'
loop_
_atom_site_label
_atom_site_type_symbol
_atom_site_fract_x
_atom_site_fract_y
_atom_site_fract_z
C1    C     0.65256024164394 0.09411529575080 0.51180548990221 
C2    C     0.69255467876989 0.05998965476658 0.44639495845573 
C3    C     0.70070275515236 0.97115621468549 0.24146002467671 
C4    C     0.66873882366980 0.92075921882747 0.10229612828572 
C5    C     0.62722699481139 0.95622458106958 0.16319060398927 
C6    C     0.61893501486667 0.04352024614535 0.37311008848547 
C7    C     0.57739815925811 0.07806347008991 0.43449119020860 
C8    C     0.54545313407919 0.02636973248851 0.29595946443905 
C9    C     0.55361484308455 0.93811007846253 0.09068380800123 
C10   C     0.59362011422808 0.90517086199088 0.02465259229196 
H1    H     0.64638087690478 0.16093739957885 0.67042723240390 
H2    H     0.71795772220704 0.10228426775874 0.55332596243981 
H3    H     0.73239683385510 0.94135356920573 0.19440748042456 
H4    H     0.67482391878246 0.85204132801003 0.94465313010221 
H5    H     0.57126615697024 0.14640529091537 0.59238770860744 
H6    H     0.51371239432534 0.05423474560680 0.34401333777446 
H7    H     0.52819045801085 0.89537367094295 0.98426201777354 
H8    H     0.59984003409015 0.83855878166475 0.86594429546242 
