data_stdin
_audit_creation_method 'critic2'
_audit_creation_date 2023-8-11
_chemical_formula_sum 'C10 H8'
_cell_formula_units_Z 4
_cell_length_a         8.1059808120
_cell_length_b         9.2693379700
_cell_length_c        10.4080042162
_cell_angle_alpha        90.0000
_cell_angle_beta        65.8423
_cell_angle_gamma        90.0000
_cell_volume           713.539100
_space_group_crystal_system monoclinic
_space_group_IT_number 14
_space_group_name_H-M_alt 'P2_1/c'
_space_group_name_Hall '-P 2ybc'
loop_
_symmetry_equiv_pos_site_id
_symmetry_equiv_pos_as_xyz
 1 'x,y,z'
 2 '-x,-y,-z'
 3 '-x,-1/2+y,-1/2-z'
 4 'x,-1/2-y,-1/2+z'
loop_
_atom_site_label
_atom_site_type_symbol
_atom_site_fract_x
_atom_site_fract_y
_atom_site_fract_z
C1    C     0.72314762023682 0.23206162968112 0.41695362042036 
C2    C     0.89893272040190 0.20272575946375 0.32520848018765 
C3    C     0.93491046040993 0.10538622022926 0.21211649011941 
C4    C     0.79455077016437 0.04107062029889 0.19105940988436 
C5    C     0.61211660987309 0.07094959956502 0.28218092982427 
C6    C     0.57565200037809 0.16742563970295 0.39845691957718 
C7    C     0.39314625948576 0.19424644015882 0.49171466039679 
C8    C     0.25285594953831 0.13074488985806 0.46988003028586 
C9    C     0.28908511960576 0.03639363019820 0.35457418985169 
C10   C     0.46480049975055 0.00703139021731 0.26294141017242 
H1    H     0.69539671963424 0.30364826969408 0.50643071995263 
H2    H     0.01099734057258 0.25272070959784 0.34063106979390 
H3    H     0.07441500020706 0.08006009032008 0.14278203973278 
H4    H     0.82132313947314 0.96453030004466 0.10527811040627 
H5    H     0.36652585037077 0.26492170016674 0.58186522977321 
H6    H     0.11359472998989 0.15095913963163 0.54293617039990 
H7    H     0.17774259040800 0.98498281961376 0.33920031999439 
H8    H     0.49248403053840 0.93198481986915 0.17610104951914 
