data_stdin
_audit_creation_method 'critic2'
_audit_creation_date 2023-8-11
_chemical_formula_sum 'C10 H8'
_cell_formula_units_Z 16
_cell_length_a        27.7718881975
_cell_length_b        27.7737508699
_cell_length_c         3.9401264585
_cell_angle_alpha        90.0131
_cell_angle_beta        90.0059
_cell_angle_gamma        90.0038
_cell_volume          3039.135685
_space_group_crystal_system triclinic
_space_group_IT_number 2
_space_group_name_H-M_alt 'P-1'
_space_group_name_Hall '-P 1'
loop_
_symmetry_equiv_pos_site_id
_symmetry_equiv_pos_as_xyz
 1 'x,y,z'
 2 '-x,-y,-z'
 3 '-1/2+x,-1/2+y,-1/2+z'
 4 '-1/2-x,-1/2-y,-1/2-z'
loop_
_atom_site_label
_atom_site_type_symbol
_atom_site_fract_x
_atom_site_fract_y
_atom_site_fract_z
C1    C     0.07858270997653 0.01864988992926 0.60158268993115 
C2    C     0.73136040009824 0.32856762006866 0.85174318887808 
C3    C     0.26865612988222 0.17142578004207 0.85153140119949 
C4    C     0.92142086013327 0.48134909010074 0.60149405875269 
C5    C     0.12338534013154 0.01611596013179 0.45184521908310 
C6    C     0.73389875998145 0.37337176004837 0.70211807026709 
C7    C     0.26612047986350 0.12662132998225 0.70176407975356 
C8    C     0.87660883009701 0.48387702998833 0.45182955029048 
C9    C     0.15008180983428 0.05857772988396 0.38946214926608 
C10   C     0.69143788014851 0.40007557005006 0.63982216117139 
C11   C     0.30858313989317 0.09991991982883 0.63945613119851 
C12   C     0.84989927999923 0.44141418013203 0.38958174880403 
C13   C     0.13176936992175 0.10280478015039 0.48229821903991 
C14   C     0.64720762997473 0.38176862011206 0.73263221078432 
C15   C     0.35281222016107 0.11823009990987 0.73238900057588 
C16   C     0.86820815991484 0.39719323997013 0.48248792991307 
C17   C     0.08608639994173 0.10662604016001 0.64119433045020 
C18   C     0.64338228001682 0.33608428993965 0.89141517880614 
C19   C     0.35663500008103 0.16391556011975 0.89131020013585 
C20   C     0.91390043002591 0.39337887998922 0.64131875080630 
C21   C     0.05868947011997 0.06361887986442 0.69925302885259 
C22   C     0.68638793987691 0.30868010003849 0.94938799058334 
C23   C     0.31362730993583 0.19131655986977 0.94930463986733 
C24   C     0.94131117013601 0.43638607012800 0.69922585903438 
C25   C     0.01284824016030 0.06758910992264 0.85560488010077 
C26   C     0.68241276006952 0.26283757017164 0.10562414926345 
C27   C     0.31759876990667 0.23715941001793 0.10569290084150 
C28   C     0.98716261000450 0.43242219984020 0.85549651998443 
C29   C     0.99512101999752 0.11166759003568 0.95655480112094 
C30   C     0.63833154015579 0.24511628017768 0.20655595973261 
C31   C     0.36167881011935 0.25488442010997 0.20674165120961 
C32   C     0.00488549996878 0.38835075987871 0.95652983926412 
C33   C     0.02223450987922 0.15403633988382 0.90008298081777 
C34   C     0.59596442003190 0.27223665013183 0.15016843097373 
C35   C     0.40404799993787 0.22776746994497 0.15032844110230 
C36   C     0.97775771989986 0.34598225004210 0.90021843111418 
C37   C     0.06657547999476 0.15154874992750 0.74386696028446 
C38   C     0.59845651982618 0.31657905999441 0.99405894097196 
C39   C     0.40155952016942 0.18342467017477 0.99407798016785 
C40   C     0.93340697006455 0.34846319993140 0.74407498942604 
H1    H     0.05784420983277 0.98593321985535 0.64617798971919 
H2    H     0.76407617011886 0.30782340992184 0.89626417110905 
H3    H     0.23593907005712 0.19216781011987 0.89607165930013 
H4    H     0.94216968009437 0.51406597008729 0.64597783893543 
H5    H     0.13832794016405 0.98136018991957 0.38019373956178 
H6    H     0.76865708009502 0.38830946007072 0.63047746092340 
H7    H     0.23136274990440 0.11168139012857 0.63002985101798 
H8    H     0.86166914012665 0.51862860005719 0.38012734112250 
H9    H     0.18492550001832 0.05621360012921 0.26343241936297 
H10   H     0.69380546012050 0.43492062005870 0.51387807114318 
H11   H     0.30621855983736 0.06507412017009 0.51340672910710 
H12   H     0.81504764988153 0.44377229988458 0.26360800034413 
H13   H     0.15215748991595 0.13562550008995 0.43393403979951 
H14   H     0.61438686007871 0.40216133989461 0.68433271939065 
H15   H     0.38563389004618 0.09783852986533 0.68408402933299 
H16   H     0.84780989995830 0.36437159992947 0.43423081934931 
H17   H     0.99177656989250 0.03503591982135 0.89604608002417 
H18   H     0.71496431991479 0.24175997986707 0.14599391074621 
H19   H     0.28504519998954 0.25823391013903 0.14608287966513 
H20   H     0.00824523982908 0.46497485998225 0.89581180906384 
H21   H     0.96034040012063 0.11408859003296 0.08287887965645 
H22   H     0.63590774992774 0.21033397996579 0.33278912917661 
H23   H     0.36410021017305 0.28966677996469 0.33308893998649 
H24   H     0.03967450991002 0.38593505985309 0.08279066986644 
H25   H     0.00775533010631 0.18867055988852 0.98032341119335 
H26   H     0.56132742006903 0.25776344984827 0.23039192939178 
H27   H     0.43868397005094 0.24224348991194 0.23064776084362 
H28   H     0.99223270006778 0.31135381988851 0.98053492958481 
H29   H     0.08729610010499 0.18417938010058 0.69751078093029 
H30   H     0.56582695985453 0.33730555010151 0.94777165880383 
H31   H     0.43419119990313 0.16270160001578 0.94777105095497 
H32   H     0.91267457012982 0.31583250986468 0.69784901088669 
