data_stdin
_audit_creation_method 'critic2'
_audit_creation_date 2023-8-11
_chemical_formula_sum 'C10 H8'
_cell_formula_units_Z 4
_cell_length_a         5.9653127675
_cell_length_b        18.7106226238
_cell_length_c         7.6401816366
_cell_angle_alpha        89.9892
_cell_angle_beta        61.3174
_cell_angle_gamma        90.0352
_cell_volume           748.116676
_space_group_crystal_system triclinic
_space_group_IT_number 2
_space_group_name_H-M_alt 'P-1'
_space_group_name_Hall '-P 1'
loop_
_symmetry_equiv_pos_site_id
_symmetry_equiv_pos_as_xyz
 1 'x,y,z'
 2 '-x,-y,-z'
loop_
_atom_site_label
_atom_site_type_symbol
_atom_site_fract_x
_atom_site_fract_y
_atom_site_fract_z
C1    C     0.81445470928303 0.40787920986446 0.23222393058316 
C2    C     0.18558516928843 0.90786685992386 0.26808037006024 
C3    C     0.69558516070926 0.45325391008853 0.16027522945031 
C4    C     0.30497078890113 0.95326434018386 0.33961257078589 
C5    C     0.43039900999742 0.46674709996220 0.27309641955445 
C6    C     0.57027923934832 0.96667228025417 0.22658894969508 
C7    C     0.28721269966459 0.43366421022367 0.45468277001060 
C8    C     0.71306145018550 0.93347215011512 0.04525477932578 
C9    C     0.40267160093399 0.38594308981904 0.53220829972958 
C10   C     0.59704953948495 0.88573101984801 0.96814953071302 
C11   C     0.67270627032619 0.37347156016328 0.41950600009635 
C12   C     0.32689528064893 0.87336719008223 0.08101369969394 
C13   C     0.78959474944934 0.32696461021067 0.49871796953599 
C14   C     0.20943329071140 0.82685498009412 0.00221001009754 
C15   C     0.64703900058737 0.29433917010418 0.68129001952717 
C16   C     0.35155949939933 0.79410931007096 0.81989438056956 
C17   C     0.38032386988647 0.30626101979703 0.79195773965784 
C18   C     0.61840521019092 0.80591094000980 0.70907586946012 
C19   C     0.26057254931311 0.35081699982741 0.71852552002776 
C20   C     0.73869574949754 0.85048312017784 0.78209923991628 
H1    H     0.01925449941984 0.39787859017599 0.14666757008205 
H2    H     0.98071097059453 0.89791544996629 0.35379766003098 
H3    H     0.80633786030908 0.47962424020327 0.01687861017597 
H4    H     0.19455127054414 0.97971976017218 0.48281914977085 
H5    H     0.34094972977527 0.50424676025101 0.21655171069308 
H6    H     0.66015457031183 0.00420600978474 0.28275208974894 
H7    H     0.08286076041013 0.44373399993021 0.54154041020878 
H8    H     0.91751100071883 0.94346569008830 0.95828567970681 
H9    H     0.99474994955236 0.31766268013394 0.41275561961587 
H10   H     0.00419423914651 0.81763599998619 0.08830891004843 
H11   H     0.73776572038505 0.25899165992714 0.74161184014812 
H12   H     0.26041725025608 0.75873729004981 0.75990779930312 
H13   H     0.27123946979911 0.27988045023352 0.93577105030428 
H14   H     0.72713957978394 0.77943293993614 0.56546864017331 
H15   H     0.05511873981517 0.35983392002033 0.80312296973247 
H16   H     0.94422732956029 0.85943243015422 0.69736188012952 
