data_stdin
_audit_creation_method 'critic2'
_audit_creation_date 2023-8-11
_chemical_formula_sum 'C10 H8'
_cell_formula_units_Z 2
_cell_length_a         8.1298139074
_cell_length_b         5.7441148200
_cell_length_c         7.9185858905
_cell_angle_alpha        90.0000
_cell_angle_beta        81.1015
_cell_angle_gamma        90.0000
_cell_volume           365.335966
_space_group_crystal_system triclinic
_space_group_IT_number 1
_space_group_name_H-M_alt 'P 1'
_space_group_name_Hall 'P 1'
loop_
_symmetry_equiv_pos_site_id
_symmetry_equiv_pos_as_xyz
 1 'x,y,z'
loop_
_atom_site_label
_atom_site_type_symbol
_atom_site_fract_x
_atom_site_fract_y
_atom_site_fract_z
C1    C     0.00167531014586 0.97710439924995 0.97727940975273 
C2    C     0.50167534989471 0.02289551994346 0.47727940960333 
C3    C     0.02716618000202 0.93520077072407 0.14276975001495 
C4    C     0.52716623979873 0.06479911935179 0.64276973938821 
C5    C     0.12805777968649 0.08714172987483 0.22311427974851 
C6    C     0.62805788007190 0.91285818987415 0.72311422041900 
C7    C     0.20134294015247 0.27912778044638 0.13735142022084 
C8    C     0.70134305989434 0.72087222924554 0.63735129971628 
C9    C     0.17696017994366 0.32734060045131 0.96700071056595 
C10   C     0.67696027021773 0.67265944019553 0.46700059017795 
C11   C     0.07484989004597 0.17265501992742 0.88509476979433 
C12   C     0.57484993973008 0.82734497004927 0.38509470967923 
C13   C     0.05045571012754 0.22087744976761 0.71474933032859 
C14   C     0.55045571036703 0.77912256071753 0.21474928060007 
C15   C     0.12374541974081 0.41285887995818 0.62898350947093 
C16   C     0.62374542040316 0.58714118042932 0.12898341011302 
C17   C     0.22464026045762 0.56479742968649 0.70932625018707 
C18   C     0.72464029972529 0.43520267081988 0.20932609063124 
C19   C     0.25013286011500 0.52289312916855 0.87481594995531 
C20   C     0.75013294034885 0.47710697007502 0.37481577987182 
H1    H     0.92554207972132 0.85843774992393 0.91506370008030 
H2    H     0.42554209024658 0.14156214001055 0.41506374008932 
H3    H     0.96998238993950 0.78421298035536 0.21120984992336 
H4    H     0.46998245034149 0.21578684032914 0.71120989937591 
H5    H     0.14785139058431 0.05104266995882 0.35352911943391 
H6    H     0.64785150972368 0.94895722017668 0.85352905970404 
H7    H     0.27978227960585 0.39647928032636 0.19837427984555 
H8    H     0.77978243012752 0.60352076056614 0.69837411026800 
H9    H     0.97201070065595 0.10352917057509 0.65373109967341 
H10   H     0.47201067021277 0.89647080000442 0.15373109007313 
H11   H     0.10394402945407 0.44896288928744 0.49857173983037 
H12   H     0.60394398050185 0.55103717982190 0.99857164989136 
H13   H     0.28181980034353 0.71578930075338 0.64088810016797 
H14   H     0.78181983000672 0.28421084999393 0.14088789972103 
H15   H     0.32621795033005 0.64159833969936 0.93705758013516 
H16   H     0.82621808004337 0.35840179924442 0.43705734939911 
