data_stdin
_audit_creation_method 'critic2'
_audit_creation_date 2023-8-11
_chemical_formula_sum 'C10 H8'
_cell_formula_units_Z 4
_cell_length_a        12.5225704217
_cell_length_b        15.0491192212
_cell_length_c         3.9296136908
_cell_angle_alpha        89.9990
_cell_angle_beta        89.9996
_cell_angle_gamma        90.0002
_cell_volume           740.550064
_space_group_crystal_system orthorhombic
_space_group_IT_number 32
_space_group_name_H-M_alt 'Pba2'
_space_group_name_Hall 'P 2 -2ab'
loop_
_symmetry_equiv_pos_site_id
_symmetry_equiv_pos_as_xyz
 1 'x,y,z'
 2 '-x,-y,z'
 3 '-1/2-x,-1/2+y,z'
 4 '-1/2+x,-1/2-y,z'
loop_
_atom_site_label
_atom_site_type_symbol
_atom_site_fract_x
_atom_site_fract_y
_atom_site_fract_z
C1    C     0.76202003016745 0.31052674979281 0.00933806016067 
C2    C     0.73379319992622 0.39799178973000 0.06080959876367 
C3    C     0.63240287979356 0.42912382018795 0.95635454911834 
C4    C     0.56151621969714 0.37254544022563 0.79786800918988 
C5    C     0.58777590018036 0.28193870027826 0.74416657127106 
C6    C     0.69013986008792 0.25013310987768 0.85365291921383 
C7    C     0.71556094990900 0.15918880022079 0.80453846966074 
C8    C     0.64349793991174 0.10204146024464 0.65454467990635 
C9    C     0.54278367006699 0.13356407997706 0.54483121985525 
C10   C     0.51585308038169 0.22164394029928 0.58828847034346 
H1    H     0.84032157001866 0.28666480023881 0.08725861932236 
H2    H     0.78919049026016 0.44347840977588 0.18394428069520 
H3    H     0.61050824993434 0.49803322019348 0.00359502964668 
H4    H     0.48426872980150 0.39663086975201 0.70930505934590 
H5    H     0.79285067963587 0.13496650987279 0.89210688089344 
H6    H     0.66398596003440 0.03220180992696 0.62312496065812 
H7    H     0.48676336989038 0.08815127994837 0.42370326964569 
H8    H     0.43828458970316 0.24626073022125 0.50580898099049 
