data_stdin
_audit_creation_method 'critic2'
_audit_creation_date 2023-8-11
_chemical_formula_sum 'C10 H8'
_cell_formula_units_Z 4
_cell_length_a         6.7303309433
_cell_length_b         7.2155905021
_cell_length_c        16.7138164230
_cell_angle_alpha        89.9986
_cell_angle_beta        75.1106
_cell_angle_gamma        89.9991
_cell_volume           784.424944
_space_group_crystal_system monoclinic
_space_group_IT_number 9
_space_group_name_H-M_alt 'Cc'
_space_group_name_Hall 'C -2yc'
loop_
_symmetry_equiv_pos_site_id
_symmetry_equiv_pos_as_xyz
 1 'x,y,z'
 2 'x,-y,-1/2+z'
 3 '-1/2+x,-1/2+y,z'
 4 '-1/2+x,-1/2-y,-1/2+z'
loop_
_atom_site_label
_atom_site_type_symbol
_atom_site_fract_x
_atom_site_fract_y
_atom_site_fract_z
C1    C     0.00472540991742 0.14778883950286 0.99944447978772 
C2    C     0.96708790031439 0.20528213947593 0.08058523025352 
C3    C     0.95452442966381 0.39659060019792 0.10003079004095 
C4    C     0.98374983046637 0.52721812941532 0.03786278979186 
C5    C     0.02447911053966 0.47251005033653 0.95363793997931 
C6    C     0.03306749022117 0.27837982995492 0.93403408972643 
C7    C     0.06915702048523 0.22370579948049 0.84995439015106 
C8    C     0.09738710026410 0.35431988066399 0.78780460004526 
C9    C     0.09275132936006 0.54560641043944 0.80701563989387 
C10   C     0.05637376997779 0.60309570053094 0.88812248009480 
H1    H     0.01326342031233 0.00070329008177 0.98451089973285 
H2    H     0.94649764016368 0.10313632954752 0.13002026005785 
H3    H     0.92129454951057 0.44039451056460 0.16446745990707 
H4    H     0.97537874017226 0.67453185063259 0.05263659004681 
H5    H     0.07347926069068 0.07641626066583 0.83527851989287 
H6    H     0.12298114043016 0.31034023064157 0.72362391992204 
H7    H     0.11747560015397 0.64790483944032 0.75750581989034 
H8    H     0.05156985944851 0.75017108038883 0.90294895984544 
