data_stdin
_audit_creation_method 'critic2'
_audit_creation_date 2023-8-11
_chemical_formula_sum 'C10 H8'
_cell_formula_units_Z 8
_cell_length_a        15.8218133801
_cell_length_b        12.0588220905
_cell_length_c         7.6317764001
_cell_angle_alpha        90.0002
_cell_angle_beta        90.0000
_cell_angle_gamma        90.0007
_cell_volume          1456.085185
_space_group_crystal_system orthorhombic
_space_group_IT_number 61
_space_group_name_H-M_alt 'Pbca'
_space_group_name_Hall '-P 2ac 2ab'
loop_
_symmetry_equiv_pos_site_id
_symmetry_equiv_pos_as_xyz
 1 'x,y,z'
 2 '-x,-y,-z'
 3 '-x,-1/2+y,-1/2-z'
 4 'x,-1/2-y,-1/2+z'
 5 '-1/2-x,-y,-1/2+z'
 6 '-1/2+x,y,-1/2-z'
 7 '-1/2+x,-1/2-y,-z'
 8 '-1/2-x,-1/2+y,z'
loop_
_atom_site_label
_atom_site_type_symbol
_atom_site_fract_x
_atom_site_fract_y
_atom_site_fract_z
C1    C     0.19585240030439 0.98949957972244 0.55139808035476 
C2    C     0.11381549969942 0.95499436976786 0.52381648053791 
C3    C     0.09701608980529 0.85388092012199 0.43614520962646 
C4    C     0.16273944991019 0.78759940962611 0.37963695006610 
C5    C     0.24792061016748 0.82008813973468 0.40831131974259 
C6    C     0.26489698012439 0.92363944020940 0.49455691030916 
C7    C     0.35025334999699 0.95588253000734 0.52278547005299 
C8    C     0.41581440020797 0.88878984977800 0.46795256940182 
C9    C     0.39895879005044 0.78727361017088 0.38171186022721 
C10   C     0.31689968023135 0.75353792977162 0.35311944007271 
H1    H     0.20834730983094 0.06774890018119 0.61749731952532 
H2    H     0.06187155999490 0.00613662000199 0.57073687962474 
H3    H     0.03188431987122 0.82833572024384 0.41329859971643 
H4    H     0.15034607006603 0.70977016011236 0.31160623040797 
H5    H     0.36267360011585 0.03368474003684 0.59096231031910 
H6    H     0.48112271006498 0.91304418027089 0.49170607055951 
H7    H     0.45110498018087 0.73523447979602 0.33797529051348 
H8    H     0.30413690005373 0.67522463989697 0.28769853048049 
