data_stdin
_audit_creation_method 'critic2'
_audit_creation_date 2023-8-11
_chemical_formula_sum 'C10 H8'
_cell_formula_units_Z 8
_cell_length_a        12.8399609221
_cell_length_b         3.9798513027
_cell_length_c        30.1052062041
_cell_angle_alpha        89.9935
_cell_angle_beta        90.0136
_cell_angle_gamma        89.9983
_cell_volume          1538.410159
_space_group_crystal_system monoclinic
_space_group_IT_number 5
_space_group_name_H-M_alt 'C2'
_space_group_name_Hall 'C 2y'
loop_
_symmetry_equiv_pos_site_id
_symmetry_equiv_pos_as_xyz
 1 'x,y,z'
 2 '-1/2-x,-1/2+y,-1/2-z'
 3 '-1/2+x,-1/2+y,z'
 4 '-x,y,-1/2-z'
loop_
_atom_site_label
_atom_site_type_symbol
_atom_site_fract_x
_atom_site_fract_y
_atom_site_fract_z
C1    C     0.11656212964333 0.42245875874578 0.08149527997095 
C2    C     0.11677189969905 0.57754041043128 0.91850374995272 
C3    C     0.20008994004028 0.34200878027446 0.05478139016220 
C4    C     0.20033929976706 0.65798182892973 0.94521222991555 
C5    C     0.30269236969173 0.41953742103855 0.06849753011301 
C6    C     0.30292051003154 0.58042389108013 0.93148943003381 
C7    C     0.31991438965102 0.57587148099013 0.10871111013418 
C8    C     0.32008349963427 0.42408677075847 0.89127498010448 
C9    C     0.23576281992454 0.66084083927074 0.13707651014383 
C10   C     0.23589033000476 0.33913186904629 0.86291504014445 
C11   C     0.13175786990217 0.58279604048934 0.12309371006527 
C12   C     0.13190602023087 0.41719892940766 0.87690445009711 
C13   C     0.04756023962480 0.66923931056285 0.15131667011642 
C14   C     0.04766703998039 0.33078432102472 0.84868592002057 
C15   C     0.06466157993334 0.82606993110384 0.19147362997827 
C16   C     0.06470892013523 0.17396550063687 0.80852713009930 
C17   C     0.16721230977639 0.90197765036613 0.20542590003451 
C18   C     0.16723862989933 0.09801484956319 0.79456919012800 
C19   C     0.25079001018161 0.82128963082509 0.17870592013034 
C20   C     0.25085526983832 0.17867376028477 0.82128482006292 
H1    H     0.03744231992621 0.36193224942049 0.07104198990200 
H2    H     0.03766901965217 0.63809246931993 0.92896343996938 
H3    H     0.18745019978467 0.21848329017334 0.02300901985604 
H4    H     0.18774880003220 0.78151701897696 0.97698499998471 
H5    H     0.36819290966123 0.35320973938294 0.04720648002029 
H6    H     0.36845329030275 0.64675658969439 0.95277492993071 
H7    H     0.39886840969767 0.63337818957070 0.11945068003126 
H8    H     0.39902313023477 0.36657769931464 0.88053191014049 
H9    H     0.96858490012879 0.61319584923235 0.14047360005166 
H10   H     0.96870688036514 0.38683975925274 0.85953271000652 
H11   H     0.99875249980885 0.89394933012069 0.21238192988606 
H12   H     0.99876892033027 0.10609590879383 0.78762314993395 
H13   H     0.18027326995096 0.02806424876498 0.23704055015553 
H14   H     0.18025270023376 0.97193771994989 0.76295290988184 
H15   H     0.32986092006484 0.88264974108329 0.18916568004006 
H16   H     0.32990838997560 0.11727586112302 0.81081881999662 
