data_stdin
_audit_creation_method 'critic2'
_audit_creation_date 2023-8-11
_chemical_formula_sum 'C10 H8'
_cell_formula_units_Z 8
_cell_length_a        13.6823730221
_cell_length_b         7.6846909701
_cell_length_c        14.0682521063
_cell_angle_alpha        89.9997
_cell_angle_beta        90.0041
_cell_angle_gamma        90.0000
_cell_volume          1479.203669
_space_group_crystal_system orthorhombic
_space_group_IT_number 56
_space_group_name_H-M_alt 'Pccn'
_space_group_name_Hall '-P 2ab 2ac'
loop_
_symmetry_equiv_pos_site_id
_symmetry_equiv_pos_as_xyz
 1 'x,y,z'
 2 '-x,-y,-z'
 3 '-1/2-x,-1/2-y,z'
 4 '-1/2+x,-1/2+y,-z'
 5 '-x,-1/2+y,-1/2-z'
 6 'x,-1/2-y,-1/2+z'
 7 '-1/2+x,-y,-1/2-z'
 8 '-1/2-x,y,-1/2+z'
loop_
_atom_site_label
_atom_site_type_symbol
_atom_site_fract_x
_atom_site_fract_y
_atom_site_fract_z
C1    C     0.89287368019452 0.25991044006231 0.06078570020325 
C2    C     0.87667492012858 0.24188412978912 0.96463929020599 
C3    C     0.85533373988688 0.38930470960492 0.90815561009795 
C4    C     0.85242517986108 0.55271446999806 0.94838690007672 
C5    C     0.87031429009814 0.57631189952013 0.04688440004611 
C6    C     0.88980198010117 0.42624002043333 0.10454971003310 
C7    C     0.90591300002024 0.44949799040792 0.20336888031804 
C8    C     0.90353336028884 0.61324562006544 0.24342072031230 
C9    C     0.88459273025774 0.76126105039445 0.18649235027690 
C10   C     0.86855997011107 0.74287814023844 0.09032934035200 
H1    H     0.90825001971771 0.14632825999869 0.10472023986967 
H2    H     0.87864438972971 0.11365476996811 0.93186361033059 
H3    H     0.84013357970510 0.37309256960380 0.83269347975191 
H4    H     0.83580338027061 0.66627678038439 0.90493003981213 
H5    H     0.92162012011086 0.33595745041576 0.24707287029286 
H6    H     0.91705799999298 0.62939491020096 0.31922510983404 
H7    H     0.88245193966659 0.88956885971500 0.21922584002753 
H8    H     0.85269598976579 0.85622008027594 0.04645788015896 
