data_stdin
_audit_creation_method 'critic2'
_audit_creation_date 2023-8-11
_chemical_formula_sum 'C10 H8'
_cell_formula_units_Z 8
_cell_length_a        15.4607473706
_cell_length_b        17.0332487907
_cell_length_c         5.5546334628
_cell_angle_alpha        90.0010
_cell_angle_beta        89.9988
_cell_angle_gamma        90.0009
_cell_volume          1462.794705
_space_group_crystal_system orthorhombic
_space_group_IT_number 61
_space_group_name_H-M_alt 'Pbca'
_space_group_name_Hall '-P 2ac 2ab'
loop_
_symmetry_equiv_pos_site_id
_symmetry_equiv_pos_as_xyz
 1 'x,y,z'
 2 '-x,-y,-z'
 3 '-x,-1/2+y,-1/2-z'
 4 'x,-1/2-y,-1/2+z'
 5 '-1/2-x,-y,-1/2+z'
 6 '-1/2+x,y,-1/2-z'
 7 '-1/2+x,-1/2-y,-z'
 8 '-1/2-x,-1/2+y,z'
loop_
_atom_site_label
_atom_site_type_symbol
_atom_site_fract_x
_atom_site_fract_y
_atom_site_fract_z
C1    C     0.99072460071714 0.59096480870287 0.59476833575008 
C2    C     0.04029878471547 0.62721322637379 0.42073295906810 
C3    C     0.00038421154987 0.67184616548485 0.23665610948049 
C4    C     0.91164638037928 0.67959216598337 0.22963504350884 
C5    C     0.85892470066856 0.64393973176067 0.40789314663658 
C6    C     0.89925285175381 0.59822548499146 0.59378514745860 
C7    C     0.84630262955829 0.56213545024153 0.77070674935279 
C8    C     0.75774698452005 0.57196532226994 0.76804129494099 
C9    C     0.71826591278214 0.61884730424760 0.58846899965850 
C10   C     0.76769305517056 0.65361305364515 0.41120862395304 
H1    H     0.02088553921329 0.55553078079588 0.73484896698033 
H2    H     0.11038431638135 0.62108062051794 0.42315448056058 
H3    H     0.03942512992834 0.70064556525214 0.09946266754559 
H4    H     0.88115684339538 0.71368244847287 0.08755724877328 
H5    H     0.87667038506112 0.52681795521427 0.91059825153653 
H6    H     0.71844875358568 0.54315789102775 0.90465697625788 
H7    H     0.64841729848214 0.62706043006914 0.59043635928236 
H8    H     0.73791306940453 0.68972203799776 0.27187075815040 
