data_stdin
_audit_creation_method 'critic2'
_audit_creation_date 2023-8-11
_chemical_formula_sum 'C10 H8'
_cell_formula_units_Z 4
_cell_length_a         5.9635264032
_cell_length_b         3.9036713941
_cell_length_c        32.9736311637
_cell_angle_alpha        83.4177
_cell_angle_beta        68.1467
_cell_angle_gamma        89.9518
_cell_volume           707.028691
_space_group_crystal_system triclinic
_space_group_IT_number 2
_space_group_name_H-M_alt 'P-1'
_space_group_name_Hall '-P 1'
loop_
_symmetry_equiv_pos_site_id
_symmetry_equiv_pos_as_xyz
 1 'x,y,z'
 2 '-x,-y,-z'
loop_
_atom_site_label
_atom_site_type_symbol
_atom_site_fract_x
_atom_site_fract_y
_atom_site_fract_z
C1    C     0.53962853916688 0.08540306026647 0.92452760254009 
C2    C     0.45662333798609 0.93908744216726 0.57573204831635 
C3    C     0.33583431103007 0.91527967171620 0.95602721844579 
C4    C     0.66123836748293 0.83334240919545 0.54402508054753 
C5    C     0.14593055367288 0.80076029897690 0.94423556988608 
C6    C     0.85152304239955 0.69499040267552 0.55565105578587 
C7    C     0.16387405456952 0.85622563830371 0.90108852584589 
C8    C     0.83311824372478 0.66202033962432 0.59884565304087 
C9    C     0.37153933260506 0.02885602899174 0.86781633743777 
C10   C     0.62452908167447 0.76629722017437 0.63233345708981 
C11   C     0.56360532445755 0.14646514378295 0.87980047057374 
C12   C     0.43219125808434 0.90878261516314 0.62050796108276 
C13   C     0.77105872075437 0.31952742574597 0.84651253095570 
C14   C     0.22368408180546 0.01317129482133 0.65402624303880 
C15   C     0.78930213256210 0.37372990690569 0.80332672040561 
C16   C     0.20476896154772 0.97823791965960 0.69726719591207 
C17   C     0.59981718626547 0.25779194452936 0.79153612892896 
C18   C     0.39450232907059 0.83780968311978 0.70889206459102 
C19   C     0.39553182978952 0.08931871540082 0.82310958465303 
C20   C     0.59972717346670 0.73433552266959 0.67711679183051 
H1    H     0.68558187002257 0.17700144535209 0.93345439343802 
H2    H     0.31020294090124 0.04826692080148 0.56694022868395 
H3    H     0.31946230339776 0.86949247535034 0.99025252141389 
H4    H     0.67783837298019 0.85682229987406 0.50977165499862 
H5    H     0.98540940900593 0.66782642762454 0.96939850974483 
H6    H     0.01284816511105 0.61398549392439 0.53031437247037 
H7    H     0.01772221583178 0.76843124712415 0.89200602635069 
H8    H     0.97946299286313 0.55523387719795 0.60779744175354 
H9    H     0.91700074335286 0.40826613708044 0.85558813624053 
H10   H     0.07752162238877 0.12073901527392 0.64507739091606 
H11   H     0.94934401972681 0.50760575743588 0.77812924785146 
H12   H     0.04396213211673 0.06015574001633 0.72264525141018 
H13   H     0.61558215811946 0.30076154779682 0.75733636456892 
H14   H     0.37814110968181 0.81035497617348 0.74313552059087 
H15   H     0.24895922929272 0.99963994951851 0.81421416299301 
H16   H     0.74629956837984 0.62561497258675 0.68590095246803 
