data_stdin
_audit_creation_method 'critic2'
_audit_creation_date 2023-8-11
_chemical_formula_sum 'C10 H8'
_cell_formula_units_Z 8
_cell_length_a        17.7527036986
_cell_length_b        17.7536200592
_cell_length_c         5.0450544402
_cell_angle_alpha        90.0001
_cell_angle_beta        89.9996
_cell_angle_gamma        89.9965
_cell_volume          1590.073802
_space_group_crystal_system tetragonal
_space_group_IT_number 82
_space_group_name_H-M_alt 'I-4'
_space_group_name_Hall 'I -4'
loop_
_symmetry_equiv_pos_site_id
_symmetry_equiv_pos_as_xyz
 1 'x,y,z'
 2 '-y,x,-z'
 3 '-1/2-x,-1/2-y,-1/2+z'
 4 '-1/2+y,-1/2-x,-1/2-z'
 5 '-1/2+x,-1/2+y,-1/2+z'
 6 '-1/2-y,-1/2+x,-1/2-z'
 7 '-x,-y,z'
 8 'y,-x,-z'
loop_
_atom_site_label
_atom_site_type_symbol
_atom_site_fract_x
_atom_site_fract_y
_atom_site_fract_z
C1    C     0.40885948006725 0.33067759005856 0.44552473922637 
C2    C     0.34876310007273 0.29931309008477 0.57878298049345 
C3    C     0.32406322021641 0.22574406979752 0.51532143016245 
C4    C     0.35978453976776 0.18474091004165 0.32010531063028 
C5    C     0.42166059999115 0.21554887013585 0.17866332090179 
C6    C     0.44659183987688 0.29039011020176 0.24205187053093 
C7    C     0.50795200004008 0.32146530005813 0.09863121028831 
C8    C     0.54317439003118 0.28089326003910 0.90120862022900 
C9    C     0.51870337990700 0.20712797024155 0.83914803932167 
C10   C     0.45947301000191 0.17517314982423 0.97527889091937 
H1    H     0.42851077005323 0.38712236017678 0.49553168083083 
H2    H     0.32017357024688 0.33092741978049 0.73378590068174 
H3    H     0.27670794983121 0.20181067027883 0.62345234969392 
H4    H     0.34105633015425 0.12774223022289 0.27406726908397 
H5    H     0.52665534005960 0.37847436002999 0.14557630921995 
H6    H     0.58951676012866 0.30581289976100 0.79047359095660 
H7    H     0.54653306027544 0.17613214973118 0.68079267964448 
H8    H     0.44014284977283 0.11862878018446 0.92566177972864 
