data_stdin
_audit_creation_method 'critic2'
_audit_creation_date 2023-8-11
_chemical_formula_sum 'C10 H8'
_cell_formula_units_Z 8
_cell_length_a        17.6128957608
_cell_length_b         7.2935405627
_cell_length_c        12.1076749218
_cell_angle_alpha        90.0016
_cell_angle_beta        82.4619
_cell_angle_gamma        90.0006
_cell_volume          1541.914924
_space_group_crystal_system monoclinic
_space_group_IT_number 15
_space_group_name_H-M_alt 'C2/c'
_space_group_name_Hall '-C 2yc'
loop_
_symmetry_equiv_pos_site_id
_symmetry_equiv_pos_as_xyz
 1 'x,y,z'
 2 '-x,-1/2-y,-1/2-z'
 3 '-1/2-x,-1/2+y,-z'
 4 '-1/2+x,-1/2-y,z'
 5 'x,-1/2+y,-1/2+z'
 6 '-x,-y,-z'
 7 '-1/2-x,y,-1/2-z'
 8 '-1/2+x,-y,-1/2+z'
loop_
_atom_site_label
_atom_site_type_symbol
_atom_site_fract_x
_atom_site_fract_y
_atom_site_fract_z
C1    C     0.65657175969145 0.59479116037585 0.09779497033373 
C2    C     0.68367839979159 0.76640752041995 0.11990903995878 
C3    C     0.67978416027134 0.91185574977100 0.04355282978118 
C4    C     0.64840854981100 0.88324493044214 0.94641184023841 
C5    C     0.61904176997532 0.70871552025943 0.92177010036850 
C6    C     0.62341185988755 0.56101865974233 0.99907803989597 
C7    C     0.59386609995172 0.38667721963044 0.97477103004906 
C8    C     0.56117918016168 0.35899749008649 0.87880070961069 
C9    C     0.55690021994278 0.50435471948460 0.80247210981883 
C10   C     0.58512620998975 0.67522799065191 0.82355381978224 
H1    H     0.66087398987585 0.48188084975626 0.15558483974325 
H2    H     0.70787440981894 0.79149964037623 0.19666543977771 
H3    H     0.70239025005914 0.04597521014171 0.06139339016103 
H4    H     0.64600905007868 0.99512408989991 0.88723009015728 
H5    H     0.59652042002356 0.27516861040065 0.03400885967402 
H6    H     0.53777973007734 0.22532449994815 0.86190313982144 
H7    H     0.53167661982892 0.48052080042890 0.72634862008260 
H8    H     0.58115645986379 0.78730837981923 0.76505781972764 
