data_stdin
_audit_creation_method 'critic2'
_audit_creation_date 2023-8-11
_chemical_formula_sum 'C10 H8'
_cell_formula_units_Z 4
_cell_length_a         9.9582609238
_cell_length_b         5.6652564701
_cell_length_c        12.9531087992
_cell_angle_alpha        89.9965
_cell_angle_beta        96.1034
_cell_angle_gamma        90.0005
_cell_volume           726.621738
_space_group_crystal_system monoclinic
_space_group_IT_number 14
_space_group_name_H-M_alt 'P2_1/c'
_space_group_name_Hall '-P 2ybc'
loop_
_symmetry_equiv_pos_site_id
_symmetry_equiv_pos_as_xyz
 1 'x,y,z'
 2 '-x,-y,-z'
 3 '-1/2-x,-1/2+y,-1/2-z'
 4 '-1/2+x,-1/2-y,-1/2+z'
loop_
_atom_site_label
_atom_site_type_symbol
_atom_site_fract_x
_atom_site_fract_y
_atom_site_fract_z
C1    C     0.39046622967766 0.39844287928956 0.57594282989972 
C2    C     0.29436035013674 0.57029746938253 0.55093477986877 
C3    C     0.27641263005947 0.75569762047894 0.62138507014535 
C4    C     0.35447809049155 0.76672451988338 0.71584773022646 
C5    C     0.45371560975362 0.59195913076034 0.74409117030965 
C6    C     0.47241319970231 0.40418125977160 0.67251614028048 
C7    C     0.57230969016113 0.23049750067467 0.70062866994835 
C8    C     0.64891881044222 0.23841726926533 0.79575120003685 
C9    C     0.62831895017567 0.42052981986765 0.86726513996745 
C10   C     0.53360170972953 0.59446124981819 0.84170092002791 
H1    H     0.40595353002257 0.25653646040576 0.52166685995608 
H2    H     0.23233576016564 0.56496985008197 0.47651898030896 
H3    H     0.19918415980260 0.88893622928399 0.60188356988301 
H4    H     0.34007312965826 0.90923298058471 0.76995321980976 
H5    H     0.58733364974548 0.08923537044313 0.64600162998085 
H6    H     0.72593678003096 0.10448785053658 0.81509822025744 
H7    H     0.68843762038306 0.42355438064739 0.94255457969072 
H8    H     0.51794639006100 0.73612415914607 0.89615300965520 
