data_stdin
_audit_creation_method 'critic2'
_audit_creation_date 2023-8-11
_chemical_formula_sum 'C10 H8'
_cell_formula_units_Z 8
_cell_length_a        19.7047675937
_cell_length_b        19.7053562155
_cell_length_c         3.9819568016
_cell_angle_alpha        90.0011
_cell_angle_beta        89.9994
_cell_angle_gamma        90.0057
_cell_volume          1546.151867
_space_group_crystal_system tetragonal
_space_group_IT_number 85
_space_group_name_H-M_alt 'P4/n'
_space_group_name_Hall 'P 4ab -1ab'
loop_
_symmetry_equiv_pos_site_id
_symmetry_equiv_pos_as_xyz
 1 'x,y,z'
 2 '-1/2-y,x,z'
 3 '-1/2-x,-1/2-y,z'
 4 'y,-1/2-x,z'
 5 '-x,-y,-z'
 6 '-1/2+y,-x,-z'
 7 '-1/2+x,-1/2+y,-z'
 8 '-y,-1/2+x,-z'
loop_
_atom_site_label
_atom_site_type_symbol
_atom_site_fract_x
_atom_site_fract_y
_atom_site_fract_z
C1    C     0.52198987981290 0.72594596994109 0.38798041050663 
C2    C     0.58553441991238 0.70055239981958 0.31570123898853 
C3    C     0.60312809982145 0.63376813984509 0.41243114965559 
C4    C     0.55678719977708 0.59327232980533 0.57719285993695 
C5    C     0.49083030001654 0.61770485992748 0.65306879928442 
C6    C     0.47320064989382 0.68570565016077 0.55844558998821 
C7    C     0.40739774009003 0.71035363996781 0.63637320001199 
C8    C     0.36104184023483 0.66992509015529 0.80151790019853 
C9    C     0.37824042985460 0.60272358984929 0.89316525961170 
C10   C     0.44166578021737 0.57729675010533 0.81963700028523 
H1    H     0.50796048016051 0.77724600998954 0.31274291087161 
H2    H     0.62211729009730 0.73132785985798 0.17830897082302 
H3    H     0.65351481976076 0.61427583984058 0.35587917045931 
H4    H     0.57039498008498 0.54171125994673 0.64957308986433 
H5    H     0.39396492020926 0.76182399011788 0.56201154057113 
H6    H     0.31073633022411 0.68940535976552 0.86167559940288 
H7    H     0.34128392019475 0.57142841986315 0.02481534012983 
H8    H     0.45483848011557 0.52550753020082 0.88888584020224 
