data_stdin
_audit_creation_method 'critic2'
_audit_creation_date 2023-8-11
_chemical_formula_sum 'C10 H8'
_cell_formula_units_Z 4
_cell_length_a         8.9504562341
_cell_length_b         5.9271350021
_cell_length_c        16.0642088819
_cell_angle_alpha        90.0001
_cell_angle_beta        59.9577
_cell_angle_gamma        90.0007
_cell_volume           737.725226
_space_group_crystal_system monoclinic
_space_group_IT_number 14
_space_group_name_H-M_alt 'P2_1/c'
_space_group_name_Hall '-P 2ybc'
loop_
_symmetry_equiv_pos_site_id
_symmetry_equiv_pos_as_xyz
 1 'x,y,z'
 2 '-x,-y,-z'
 3 '-x,-1/2+y,-1/2-z'
 4 'x,-1/2-y,-1/2+z'
loop_
_atom_site_label
_atom_site_type_symbol
_atom_site_fract_x
_atom_site_fract_y
_atom_site_fract_z
C1    C     0.41432401022478 0.33768756048526 0.84081897027591 
C2    C     0.50810181980184 0.45359291999245 0.87382928992981 
C3    C     0.45305733031440 0.66865983986221 0.91694975006530 
C4    C     0.30451507070660 0.76394796024554 0.92686146968357 
C5    C     0.20362524017114 0.64810562001618 0.89489163977268 
C6    C     0.25970360036167 0.43044854053451 0.85097549985046 
C7    C     0.15812355006094 0.31395688058257 0.81962735001137 
C8    C     0.00694115022607 0.40647166933975 0.83192544965441 
C9    C     0.95183650937844 0.62112873048755 0.87512701030479 
C10   C     0.04853239984993 0.73938270966487 0.90546026974763 
H1    H     0.45764994964964 0.17346244939910 0.80662407025921 
H2    H     0.62566449995800 0.37974292985699 0.86634602973206 
H3    H     0.52855849931841 0.75873076066893 0.94243596037675 
H4    H     0.26276364066806 0.92998459058299 0.95948728983176 
H5    H     0.20128456003152 0.14890729051636 0.78629500007069 
H6    H     0.93050856991147 0.31407071077024 0.80769087998961 
H7    H     0.83272782941824 0.69330194995822 0.88422834036818 
H8    H     0.00695653938271 0.90545110968122 0.93786278013475 
