data_stdin
_audit_creation_method 'critic2'
_audit_creation_date 2023-8-11
_chemical_formula_sum 'C10 H8'
_cell_formula_units_Z 4
_cell_length_a         7.0939824979
_cell_length_b        29.4276416311
_cell_length_c         4.6192600851
_cell_angle_alpha        90.0003
_cell_angle_beta        53.5926
_cell_angle_gamma        89.9987
_cell_volume           776.095979
_space_group_crystal_system monoclinic
_space_group_IT_number 9
_space_group_name_H-M_alt 'Cc'
_space_group_name_Hall 'C -2yc'
loop_
_symmetry_equiv_pos_site_id
_symmetry_equiv_pos_as_xyz
 1 'x,y,z'
 2 '-1/2+x,-1/2-y,-1/2+z'
 3 '-1/2+x,-1/2+y,z'
 4 'x,-y,-1/2+z'
loop_
_atom_site_label
_atom_site_type_symbol
_atom_site_fract_x
_atom_site_fract_y
_atom_site_fract_z
C1    C     0.99240741976640 0.61859243988826 0.01139613042008 
C2    C     0.03771572973374 0.57542391014165 0.07135289912693 
C3    C     0.23704328951875 0.55130626989295 0.79167118067463 
C4    C     0.38732822953182 0.57074883013257 0.45641346082240 
C5    C     0.34471863923831 0.61503336994566 0.38558041065034 
C6    C     0.14340608045728 0.63954593016184 0.66952525944485 
C7    C     0.10183676000703 0.68398779004060 0.59935175874351 
C8    C     0.25027895031184 0.70307168998042 0.26230974874339 
C9    C     0.44709125016126 0.67858206002731 0.98092070130913 
C10   C     0.49396250067857 0.63566172994033 0.04217325936471 
H1    H     0.83964105027821 0.63733100986401 0.22569694089666 
H2    H     0.92186499952444 0.55977885995526 0.33574116111744 
H3    H     0.27058489046080 0.51730609013896 0.84425848986634 
H4    H     0.54174119927437 0.55244385010635 0.24003838129369 
H5    H     0.94959371046514 0.70269985000226 0.81607023900082 
H6    H     0.21555279969420 0.73701742991598 0.21073047956876 
H7    H     0.55968789041001 0.69355628985944 0.71351788036467 
H8    H     0.64573590078059 0.61678645996834 0.82713817950934 
