data_stdin
_audit_creation_method 'critic2'
_audit_creation_date 2023-8-11
_chemical_formula_sum 'C10 H8'
_cell_formula_units_Z 16
_cell_length_a        33.2279498798
_cell_length_b        15.0689470313
_cell_length_c         5.9667258692
_cell_angle_alpha        89.9989
_cell_angle_beta        89.8238
_cell_angle_gamma        90.0004
_cell_volume          2987.586478
_space_group_crystal_system monoclinic
_space_group_IT_number 9
_space_group_name_H-M_alt 'Cc'
_space_group_name_Hall 'C -2yc'
loop_
_symmetry_equiv_pos_site_id
_symmetry_equiv_pos_as_xyz
 1 'x,y,z'
 2 '-1/4+x,-3/4-y,-1/4+z'
 3 '-1/2+x,y,-1/2+z'
 4 '-3/4+x,-3/4-y,-3/4+z'
 5 'x,-1/2+y,-1/2+z'
 6 '-1/4+x,-1/4-y,-3/4+z'
 7 '-1/2+x,-1/2+y,z'
 8 '-3/4+x,-1/4-y,-1/4+z'
loop_
_atom_site_label
_atom_site_type_symbol
_atom_site_fract_x
_atom_site_fract_y
_atom_site_fract_z
C1    C     0.41407581366835 0.69008978514110 0.51554828785407 
C2    C     0.58598569715470 0.31080194158767 0.51240479375521 
C3    C     0.40844390685616 0.60316752633010 0.45043336387103 
C4    C     0.59168124936358 0.39769351715179 0.44697485638634 
C5    C     0.42149025276082 0.57429717599314 0.23648553583713 
C6    C     0.57860688227852 0.42658646211171 0.23353965014746 
C7    C     0.44026042469694 0.63256578463834 0.09172359996766 
C8    C     0.55977974712512 0.36836204916471 0.08953970092702 
C9    C     0.44681138370486 0.72229414469184 0.15446486747882 
C10   C     0.55318374341101 0.27865852356671 0.15259537914013 
C11   C     0.43347197340151 0.75167739505721 0.37110587096988 
C12   C     0.56651518599083 0.24926653860765 0.36879112214001 
C13   C     0.44036432624052 0.84123472433370 0.43386598360723 
C14   C     0.55955395740796 0.15974638629130 0.43190602809998 
C15   C     0.45951412376757 0.89917793320053 0.28977240162739 
C16   C     0.54037324703034 0.10183191715850 0.28852978309702 
C17   C     0.47278048644729 0.87010887262379 0.07636836021271 
C18   C     0.52713238371524 0.13090025918288 0.07552722724948 
C19   C     0.46652165267496 0.78345884188794 0.01033918086312 
C20   C     0.53343723912296 0.21752722368358 0.00921023226882 
H1    H     0.40373927296282 0.71267514388232 0.67945551872281 
H2    H     0.59633344217618 0.28821775509556 0.67594820042786 
H3    H     0.39370741151543 0.55623635675776 0.56219742092978 
H4    H     0.60648507429034 0.44456240431460 0.55813059145489 
H5    H     0.41640796371686 0.50567254444712 0.18705390240551 
H6    H     0.58371341025326 0.49519341561416 0.18384560649164 
H7    H     0.45044627281490 0.61114215750944 0.92668317597525 
H8    H     0.54958809832350 0.38980481873353 0.92486957048675 
H9    H     0.43038149975886 0.86299292552199 0.59910470622330 
H10   H     0.56951564319795 0.13797494302828 0.59683710166454 
H11   H     0.46469179936905 0.96761957341233 0.34044595060213 
H12   H     0.53515675997709 0.03341386094843 0.33947227618921 
H13   H     0.48833061431000 0.91590066250074 0.96441722527637 
H14   H     0.51156359855358 0.08513166485707 0.96413174814231 
H15   H     0.47706006994419 0.76058956098363 0.84735511027130 
H16   H     0.52291236076443 0.24040365405413 0.84656258536358 
