data_stdin
_audit_creation_method 'critic2'
_audit_creation_date 2023-8-11
_chemical_formula_sum 'C10 H8'
_cell_formula_units_Z 8
_cell_length_a        16.4193318300
_cell_length_b        15.0497970201
_cell_length_c         5.9337466705
_cell_angle_alpha        89.9991
_cell_angle_beta        90.0001
_cell_angle_gamma        90.0000
_cell_volume          1466.273965
_space_group_crystal_system orthorhombic
_space_group_IT_number 60
_space_group_name_H-M_alt 'Pbcn'
_space_group_name_Hall '-P 2n 2ab'
loop_
_symmetry_equiv_pos_site_id
_symmetry_equiv_pos_as_xyz
 1 'x,y,z'
 2 '-x,-y,-z'
 3 '-1/2-x,-1/2-y,-1/2+z'
 4 '-1/2+x,-1/2+y,-1/2-z'
 5 '-1/2+x,-1/2-y,-z'
 6 '-1/2-x,-1/2+y,z'
 7 '-x,y,-1/2-z'
 8 'x,-y,-1/2+z'
loop_
_atom_site_label
_atom_site_type_symbol
_atom_site_fract_x
_atom_site_fract_y
_atom_site_fract_z
C1    C     0.19463187020471 0.57928341024914 0.25151670014576 
C2    C     0.11487748012298 0.59417487006578 0.18956919045794 
C3    C     0.09626992970319 0.63497588997090 0.98085062970198 
C4    C     0.15789230992341 0.65987530017523 0.83592059069958 
C5    C     0.24072943010877 0.64482976997536 0.89409065077227 
C6    C     0.25956136998099 0.60389123015547 0.10646953964378 
C7    C     0.34236448030282 0.58849344983264 0.16388320926018 
C8    C     0.40402546970523 0.61336014001033 0.01881519005990 
C9    C     0.38538251018704 0.65456833011375 0.81064470944968 
C10   C     0.30558315025220 0.66962436015917 0.74938244008354 
H1    H     0.20855769011373 0.54813029993455 0.41244812986557 
H2    H     0.06615415016995 0.57404292021647 0.30300409932209 
H3    H     0.03288887991521 0.64692675974889 0.93543148000193 
H4    H     0.14421509002648 0.69171280017576 0.67529591042705 
H5    H     0.35606758001216 0.55643400001238 0.32410493019294 
H6    H     0.46738492025987 0.60098402030884 0.06377156035533 
H7    H     0.43404458998551 0.67488827971817 0.69723763995242 
H8    H     0.29151424985203 0.70105360978604 0.58898159919940 
