data_stdin
_audit_creation_method 'critic2'
_audit_creation_date 2023-8-11
_chemical_formula_sum 'C10 H8'
_cell_formula_units_Z 4
_cell_length_a         5.9915333428
_cell_length_b        26.7048839675
_cell_length_c         4.8247324920
_cell_angle_alpha        92.7554
_cell_angle_beta        77.5533
_cell_angle_gamma       102.9968
_cell_volume           734.517664
_space_group_crystal_system triclinic
_space_group_IT_number 1
_space_group_name_H-M_alt 'P1'
_space_group_name_Hall 'P 1'
loop_
_symmetry_equiv_pos_site_id
_symmetry_equiv_pos_as_xyz
 1 'x,y,z'
loop_
_atom_site_label
_atom_site_type_symbol
_atom_site_fract_x
_atom_site_fract_y
_atom_site_fract_z
C1    C     0.92168443963910 0.84144901984237 0.96311444068317 
C2    C     0.42217666034089 0.34152122008913 0.96306116044896 
C3    C     0.04128544057323 0.15865349988044 0.55656662047938 
C4    C     0.54179073090201 0.65866075993647 0.55663827948426 
C5    C     0.02370076018632 0.80492235015026 0.04634147906010 
C6    C     0.52425641012764 0.30500408990469 0.04628916081725 
C7    C     0.21713448985243 0.19516170013646 0.63920900953514 
C8    C     0.71776746003590 0.69511387981969 0.63937749894446 
C9    C     0.25364978038724 0.80159486989429 0.90838989023648 
C10   C     0.75412730973487 0.30165122009794 0.90815383019252 
C11   C     0.45388451013804 0.19835456016286 0.50216044932703 
C12   C     0.95446729054468 0.69830612003593 0.50206695922672 
C13   C     0.37747003004004 0.83477598995632 0.68994906059961 
C14   C     0.87786346056969 0.33481249997262 0.68958704093130 
C15   C     0.51046154910423 0.16509819008668 0.28431640065661 
C16   C     0.01088902057123 0.66508668010506 0.28396211074882 
C17   C     0.27823048032684 0.87332109007072 0.60212373066098 
C18   C     0.77860330014499 0.37336021998936 0.60182253977035 
C19   C     0.33389030994985 0.12669760994809 0.19631495097461 
C20   C     0.83417144962033 0.62671402013922 0.19603543044556 
C21   C     0.04497873010096 0.87666006015916 0.74177369007203 
C22   C     0.54538572047888 0.37670659003250 0.74156012013310 
C23   C     0.09387248070170 0.12330962006391 0.33575936996715 
C24   C     0.59420231981739 0.62333911998699 0.33564825050937 
C25   C     0.94515021962774 0.91503473009991 0.65384695033797 
C26   C     0.44552220918567 0.41507523986948 0.65362384105763 
C27   C     0.91750404981127 0.08476663988593 0.24777595018149 
C28   C     0.41775468962077 0.58478367980874 0.24789071046696 
C29   C     0.06811887973004 0.94827784015120 0.43562689075950 
C30   C     0.56846823974649 0.44831607999185 0.43538726033434 
C31   C     0.97502077954300 0.05164315997150 0.02929337080348 
C32   C     0.47517576045625 0.55163094006024 0.02951734006182 
C33   C     0.29840377051644 0.94510374998865 0.29824233951281 
C34   C     0.79874978903540 0.44514522986273 0.29796954101443 
C35   C     0.21173280076033 0.05501360012587 0.89153348051508 
C36   C     0.71183449983192 0.55499413990048 0.89157404001436 
C37   C     0.40137803961504 0.90866246992777 0.38103170038093 
C38   C     0.90173132983784 0.40870179990108 0.38071308012410 
C39   C     0.38683501047327 0.09153737986066 0.97493311914646 
C40   C     0.88699946948253 0.59154701987759 0.97467233032526 
H1    H     0.74386765075769 0.84377919012291 0.06669254989189 
H2    H     0.24440327000689 0.34385898002455 0.06676496995523 
H3    H     0.85882855054293 0.15650063988303 0.65965887099584 
H4    H     0.35938162923540 0.65652623991766 0.65986628978343 
H5    H     0.92827153973527 0.77831816005333 0.21758163042383 
H6    H     0.42891189984807 0.27842111993721 0.21766415043163 
H7    H     0.17592855066285 0.22173739008597 0.81111304099872 
H8    H     0.67676094048585 0.72166590997594 0.81146448912884 
H9    H     0.33213713931689 0.77247261001406 0.97604198104859 
H10   H     0.83256575040025 0.27250646000384 0.97565916894465 
H11   H     0.59050742925121 0.22749271994924 0.56959526955692 
H12   H     0.09112213075706 0.72746016987423 0.56942003961673 
H13   H     0.55397005959222 0.83190845000813 0.58309904004332 
H14   H     0.05432493969219 0.33193697000387 0.58260034971907 
H15   H     0.69266871991109 0.16761600014216 0.17819380013636 
H16   H     0.19301998050456 0.66760698020078 0.17753876064914 
H17   H     0.76806345909859 0.91754522006674 0.76028604063451 
H18   H     0.26844802051908 0.41759175991101 0.76006442003382 
H19   H     0.73514422912684 0.08192551014452 0.35415456061425 
H20   H     0.23543040947210 0.58194771015940 0.35440900995614 
H21   H     0.98980590061849 0.97742452000498 0.36832905924485 
H22   H     0.49010094083704 0.47744695012779 0.36802648924014 
H23   H     0.83825544959130 0.02256198992748 0.96130211920117 
H24   H     0.33837137967602 0.52250498986000 0.96188322007468 
H25   H     0.39261385969505 0.97165549990885 0.12601444005996 
H26   H     0.89294135948993 0.47170143008829 0.12575293076677 
H27   H     0.25398586020869 0.02846773011942 0.72016068052421 
H28   H     0.75399551020087 0.52841883011204 0.72032850081178 
H29   H     0.57949304037663 0.90653660987989 0.27764079943150 
H30   H     0.07982614979909 0.40656841985599 0.27728577008022 
H31   H     0.56939396037604 0.09388825987567 0.87155665041166 
H32   H     0.06953303913454 0.59388382991211 0.87122245057931 
