data_stdin
_audit_creation_method 'critic2'
_audit_creation_date 2023-8-11
_chemical_formula_sum 'C10 H8'
_cell_formula_units_Z 4
_cell_length_a         8.1210269400
_cell_length_b         5.9373840201
_cell_length_c        14.7825296500
_cell_angle_alpha        89.9997
_cell_angle_beta        90.0000
_cell_angle_gamma        90.0000
_cell_volume           712.778923
_space_group_crystal_system orthorhombic
_space_group_IT_number 33
_space_group_name_H-M_alt 'Pna2_1'
_space_group_name_Hall 'P 2c -2n'
loop_
_symmetry_equiv_pos_site_id
_symmetry_equiv_pos_as_xyz
 1 'x,y,z'
 2 '-x,-y,-1/2+z'
 3 '-1/2-x,-1/2+y,-1/2+z'
 4 '-1/2+x,-1/2-y,z'
loop_
_atom_site_label
_atom_site_type_symbol
_atom_site_fract_x
_atom_site_fract_y
_atom_site_fract_z
C1    C     0.04382364990006 0.75400544997059 0.00574575978750 
C2    C     0.99831254941031 0.69184063003590 0.91929627983289 
C3    C     0.04886100968143 0.48165644923643 0.88341659002855 
C4    C     0.14370607039402 0.33718682941640 0.93465272014593 
C5    C     0.19145728983944 0.39533380079890 0.02397929023543 
C6    C     0.14054190946452 0.60838985078658 0.06032128971861 
C7    C     0.18828900991848 0.66599238979467 0.14984246006287 
C8    C     0.28253951021598 0.51982109063849 0.20077137988707 
C9    C     0.33279129990480 0.30987827082644 0.16475152017746 
C10   C     0.28779874969321 0.24876270963004 0.07820918008054 
H1    H     0.00487225948648 0.91518258040518 0.03353246976467 
H2    H     0.92134428987043 0.80388652012062 0.87898146987683 
H3    H     0.01119005995903 0.43364801973945 0.81535629988263 
H4    H     0.18279237952455 0.17446451014393 0.90827559973924 
H5    H     0.14979608995549 0.82821273066073 0.17711200026308 
H6    H     0.31930994061320 0.56557993060767 0.26915164972637 
H7    H     0.40840855042565 0.19700230072412 0.20523431987881 
H8    H     0.32637133949328 0.08755139967275 0.05027289025399 
