data_stdin
_audit_creation_method 'critic2'
_audit_creation_date 2023-8-11
_chemical_formula_sum 'C10 H8'
_cell_formula_units_Z 4
_cell_length_a         7.5944907201
_cell_length_b        13.4534366964
_cell_length_c         7.0511306400
_cell_angle_alpha        90.0000
_cell_angle_beta        90.0000
_cell_angle_gamma        90.0014
_cell_volume           720.428121
_space_group_crystal_system orthorhombic
_space_group_IT_number 19
_space_group_name_H-M_alt 'P2_12_12_1'
_space_group_name_Hall 'P 2ac 2ab'
loop_
_symmetry_equiv_pos_site_id
_symmetry_equiv_pos_as_xyz
 1 'x,y,z'
 2 '-x,-1/2+y,-1/2-z'
 3 '-1/2-x,-y,-1/2+z'
 4 '-1/2+x,-1/2-y,-z'
loop_
_atom_site_label
_atom_site_type_symbol
_atom_site_fract_x
_atom_site_fract_y
_atom_site_fract_z
C1    C     0.72714827969720 0.48602680999837 0.40135393974419 
C2    C     0.75926031060294 0.38673924009984 0.43535992962144 
C3    C     0.63102236056830 0.32721618988543 0.52692944055674 
C4    C     0.47242557029184 0.36808829008458 0.58232858966251 
C5    C     0.43445780011145 0.46980939988105 0.54727290963985 
C6    C     0.56485972945418 0.53003154997938 0.45518585061205 
C7    C     0.52696734946508 0.63177677975882 0.42034283010515 
C8    C     0.36851974957048 0.67270862033819 0.47607041023453 
C9    C     0.24021992967722 0.61316149989727 0.56748870002861 
C10   C     0.27216465032571 0.51381131978032 0.60107190947351 
H1    H     0.82651400965032 0.53198537964062 0.33298150996619 
H2    H     0.88471677030777 0.35452415003849 0.39277337066416 
H3    H     0.65891964958204 0.24920233028539 0.55588679008355 
H4    H     0.37454272001173 0.32341302034541 0.65629075001163 
H5    H     0.62465162005140 0.67642435982467 0.34602269027686 
H6    H     0.34074649936333 0.75077400985753 0.44747764054262 
H7    H     0.11487071984477 0.64539592964484 0.61041439041911 
H8    H     0.17267771013709 0.46782890978674 0.66918053048952 
