data_stdin
_audit_creation_method 'critic2'
_audit_creation_date 2023-8-11
_chemical_formula_sum 'C10 H8'
_cell_formula_units_Z 8
_cell_length_a        15.7963871100
_cell_length_b        12.2800819501
_cell_length_c         7.4541890500
_cell_angle_alpha        90.0000
_cell_angle_beta        90.0000
_cell_angle_gamma        89.9997
_cell_volume          1445.970511
_space_group_crystal_system orthorhombic
_space_group_IT_number 60
_space_group_name_H-M_alt 'Pbcn'
_space_group_name_Hall '-P 2n 2ab'
loop_
_symmetry_equiv_pos_site_id
_symmetry_equiv_pos_as_xyz
 1 'x,y,z'
 2 '-x,-y,-z'
 3 '-1/2-x,-1/2-y,-1/2+z'
 4 '-1/2+x,-1/2+y,-1/2-z'
 5 '-1/2+x,-1/2-y,-z'
 6 '-1/2-x,-1/2+y,z'
 7 '-x,y,-1/2-z'
 8 'x,-y,-1/2+z'
loop_
_atom_site_label
_atom_site_type_symbol
_atom_site_fract_x
_atom_site_fract_y
_atom_site_fract_z
C1    C     0.16694826011509 0.24671954022478 0.62332510988214 
C2    C     0.08608509976190 0.21558027991161 0.57635905978190 
C3    C     0.07182104001277 0.11708531990551 0.48227115000310 
C4    C     0.13883158972850 0.04982247013477 0.43908259947566 
C5    C     0.22295598027071 0.07904904966253 0.48692134020922 
C6    C     0.23739359006157 0.18025306971420 0.57872229015668 
C7    C     0.32156678983206 0.21021952969967 0.62400433020466 
C8    C     0.38848027994491 0.14250195003101 0.58261211997133 
C9    C     0.37422026009415 0.04264937965554 0.49291505945272 
C10   C     0.29328114968693 0.01167475032406 0.44582167959761 
H1    H     0.17774170985040 0.32273242987568 0.69492122057736 
H2    H     0.03245801030678 0.26690731029339 0.61158119936650 
H3    H     0.00755830986964 0.09462648964084 0.44432079000746 
H4    H     0.12837727007991 0.97379197988506 0.36677355945604 
H5    H     0.33236814011609 0.28696562967129 0.69356810040593 
H6    H     0.45257278974206 0.16589943969911 0.62025390980213 
H7    H     0.42727105006977 0.98955390988633 0.46035687974811 
H8    H     0.28252372989401 0.93485924025247 0.37673010965913 
