data_stdin
_audit_creation_method 'critic2'
_audit_creation_date 2023-8-11
_chemical_formula_sum 'C10 H8'
_cell_formula_units_Z 16
_cell_length_a        26.0857184843
_cell_length_b        29.7446772401
_cell_length_c         3.8830659285
_cell_angle_alpha        89.9767
_cell_angle_beta        89.8603
_cell_angle_gamma        90.0294
_cell_volume          3012.905045
_space_group_crystal_system triclinic
_space_group_IT_number 1
_space_group_name_H-M_alt 'P1'
_space_group_name_Hall 'P 1'
loop_
_symmetry_equiv_pos_site_id
_symmetry_equiv_pos_as_xyz
 1 'x,y,z'
 2 '-1/2+x,-1/2+y,z'
loop_
_atom_site_label
_atom_site_type_symbol
_atom_site_fract_x
_atom_site_fract_y
_atom_site_fract_z
C1    C     0.47641988510656 0.42501364983272 0.52571345896687 
C2    C     0.47642424575299 0.92500089635550 0.02660430950703 
C3    C     0.52351634426328 0.57519591315855 0.53159632798316 
C4    C     0.52353037841842 0.07518555321926 0.03226203983731 
C5    C     0.77352246063473 0.67480336149021 0.78207191090567 
C6    C     0.77349823278897 0.17479417020789 0.28150961606508 
C7    C     0.72641008618009 0.82497945183722 0.77661094577152 
C8    C     0.72640981012282 0.32499463012497 0.27640709881871 
C9    C     0.44176589806260 0.45994251885459 0.51791158877602 
C10   C     0.44184929050252 0.95999121996813 0.01909733076464 
C11   C     0.55817671142814 0.54026297661502 0.52514531399012 
C12   C     0.55811092326026 0.04019275970552 0.02585635110210 
C13   C     0.80810215354347 0.70982688095192 0.77515880100331 
C14   C     0.80804018227937 0.20984572150776 0.27439420573159 
C15   C     0.69184654115841 0.78995431914994 0.76823388596614 
C16   C     0.69187582572111 0.28994792732115 0.26783408000162 
C17   C     0.39167127143492 0.45290927797508 0.39028756554270 
C18   C     0.39174897051013 0.95307354439473 0.89120573419575 
C19   C     0.60829576766969 0.54718080092107 0.39592546551051 
C20   C     0.60822949668797 0.04700852579776 0.89630123565987 
C21   C     0.85821508440330 0.70304426798686 0.64558658404677 
C22   C     0.85814422485360 0.20310279400239 0.14455223457532 
C23   C     0.64177624577532 0.79685952276729 0.63986872073535 
C24   C     0.64181592891849 0.29682298115728 0.13920379139265 
C25   C     0.37677539944857 0.41094722368200 0.27817263543927 
C26   C     0.37676811605262 0.91116202706705 0.77850204545710 
C27   C     0.62321672322805 0.58904775445849 0.28113155309728 
C28   C     0.62323057848291 0.08883400873065 0.78110388313410 
C29   C     0.87321206892061 0.66122047930809 0.53086940892009 
C30   C     0.87317209845798 0.16129058286496 0.02978569475670 
C31   C     0.62681044129211 0.83879402999347 0.52759502299441 
C32   C     0.62682812493753 0.33874880628621 0.02688889664902 
C33   C     0.41143527449447 0.37423525074386 0.28386678748243 
C34   C     0.41134538685308 0.87438882575347 0.78387836495865 
C35   C     0.58855245987469 0.62576136243444 0.28543629346759 
C36   C     0.58865106681140 0.12560932888643 0.78535447587955 
C37   C     0.83863624170636 0.62441161415458 0.53570304105781 
C38   C     0.83863564700346 0.12445417915384 0.03480927898849 
C39   C     0.66137293755082 0.87560589125863 0.53392880588677 
C40   C     0.66135935446889 0.37558212860431 0.03341909419004 
C41   C     0.46260122807313 0.38158245396270 0.40697739301354 
C42   C     0.46251683238900 0.88161803281027 0.90730255392263 
C43   C     0.53735327711458 0.61851730162998 0.40991870304962 
C44   C     0.53745008410081 0.11846990354718 0.91021139711925 
C45   C     0.78744020380071 0.63151787686252 0.66056955164652 
C46   C     0.78744741447524 0.13151865302102 0.15995552029126 
C47   C     0.71251760223679 0.86838880389961 0.65778871790067 
C48   C     0.71249570949135 0.36839646946846 0.15753754224350 
C49   C     0.49773639690419 0.34522533841108 0.40450089504706 
C50   C     0.49756522414717 0.84519628256744 0.90457534272608 
C51   C     0.50221189086501 0.65486835134259 0.40598559049040 
C52   C     0.50239689148194 0.15488432587182 0.90627292369568 
C53   C     0.75239138220026 0.59506860974116 0.65723225211706 
C54   C     0.75243814822138 0.09503965197429 0.15680936775881 
C55   C     0.74755519184968 0.90485032782104 0.65599419487253 
C56   C     0.74750338423077 0.40488016557255 0.15591953989406 
C57   C     0.48312363659064 0.30335431938645 0.28899584696137 
C58   C     0.48286226349687 0.80337374727300 0.78855171725730 
C59   C     0.51685851822812 0.69664517957248 0.28798697230326 
C60   C     0.51712971039914 0.19662504694599 0.78795440095610 
C61   C     0.76712561172674 0.55332470295748 0.53953663146196 
C62   C     0.76720302332349 0.05330851651048 0.03901398136213 
C63   C     0.73286456990770 0.94670074035299 0.54051963491631 
C64   C     0.73279139895027 0.44672158227134 0.04037054884647 
C65   C     0.43244613796022 0.29589928059836 0.17356619277294 
C66   C     0.43218077040160 0.79603759876178 0.67274367515876 
C67   C     0.56757505817843 0.70400513198714 0.17121536864253 
C68   C     0.56784134147510 0.20387797976628 0.67074734569553 
C69   C     0.81783358578770 0.54610286286451 0.42235463464845 
C70   C     0.81790358556387 0.04613001862529 0.92152010396211 
C71   C     0.68220641294864 0.95402541654164 0.42433172489459 
C72   C     0.68214027002579 0.45401413544709 0.92392177198809 
C73   C     0.39744874306997 0.33060412882845 0.17010667353123 
C74   C     0.39726907058142 0.83080852360721 0.66949225827151 
C75   C     0.60257018780463 0.66929840941433 0.16897074067100 
C76   C     0.60275125523178 0.16910342970661 0.66846553497481 
C77   C     0.85273736597332 0.58091327524039 0.41944701853339 
C78   C     0.85276899813174 0.08096941264873 0.91843734125531 
C79   C     0.64730812266879 0.91921509892073 0.42011976495113 
C80   C     0.64727148574529 0.41918175459568 0.91953082161806 
H1    H     0.51501035730595 0.43014066083571 0.62543610292951 
H2    H     0.51501722733153 0.93003935783638 0.12655027584958 
H3    H     0.48491012708085 0.57015036460950 0.63256061212455 
H4    H     0.48492457327173 0.07022357992420 0.13347959832540 
H5    H     0.73492020283508 0.67974085602464 0.88329511996412 
H6    H     0.73490371292775 0.17970205798831 0.38294818668319 
H7    H     0.76498094117634 0.81994922257443 0.87689932427669 
H8    H     0.76497211548702 0.31998687273987 0.37690497955166 
H9    H     0.45274432241446 0.49306576102395 0.61110272523851 
H10   H     0.45289544764307 0.99307672291372 0.11270214043276 
H11   H     0.54718932585331 0.50723929346014 0.62091875861248 
H12   H     0.54706319064544 0.00719378785067 0.12181692075418 
H13   H     0.79705714060141 0.74282658412277 0.87071171585049 
H14   H     0.79697423819654 0.24283764072004 0.36998955376673 
H15   H     0.70287969447424 0.75684827324512 0.86148785664153 
H16   H     0.70292376696453 0.25684796752713 0.36112950693064 
H17   H     0.36498267433288 0.48098962033107 0.37842351074434 
H18   H     0.36513070934307 0.98120630721510 0.87953584483109 
H19   H     0.63497885024268 0.51908627462899 0.38499011918794 
H20   H     0.63484902225584 0.01886752572422 0.88537895601016 
H21   H     0.88483238220080 0.73120963387128 0.63429402923937 
H22   H     0.88472927130962 0.23129003628917 0.13306011732828 
H23   H     0.61517248630446 0.76869884178158 0.62749210794291 
H24   H     0.61523722553677 0.26864585243896 0.12663819825965 
H25   H     0.33804139847849 0.40554195642055 0.18270376527345 
H26   H     0.33803024122057 0.90584243324194 0.68281459895704 
H27   H     0.66197421155737 0.59437983208339 0.18456321129663 
H28   H     0.66198912719019 0.09408101356399 0.68428557378822 
H29   H     0.91196567632253 0.65599881464744 0.43401946082745 
H30   H     0.91191635391807 0.15610369132453 0.93267371302310 
H31   H     0.58809557887038 0.84410412535106 0.43153372065577 
H32   H     0.58812308801194 0.34403200814392 0.93058031514966 
H33   H     0.53676908780823 0.35099585376778 0.49309044821550 
H34   H     0.53660499738980 0.85087672378100 0.99337262019256 
H35   H     0.46315031281465 0.64916955405840 0.49554494804721 
H36   H     0.46333150325369 0.14926694719067 0.99607671410468 
H37   H     0.71332772418451 0.60065868457704 0.74699444697840 
H38   H     0.71337985381696 0.10059692117741 0.24680011449138 
H39   H     0.78657731989120 0.89917988279439 0.74506833371338 
H40   H     0.78652011457272 0.39923375140755 0.24519263294744 
H41   H     0.51055534536320 0.27578456445491 0.28493643603086 
H42   H     0.51022590094961 0.77575254541465 0.78427317112789 
H43   H     0.48944409419764 0.72422325535233 0.28297846074889 
H44   H     0.48977046980651 0.22424626871059 0.78300097169830 
H45   H     0.73976969312000 0.52567602487187 0.53511597749698 
H46   H     0.73987587889991 0.02563713885150 0.03474764927037 
H47   H     0.76021970498717 0.97435421245970 0.53702066412172 
H48   H     0.76012455263595 0.47439231725133 0.03702167955702 
H49   H     0.42116220628505 0.26258618128059 0.08598257880774 
H50   H     0.42083054094544 0.76276677677957 0.58461894217384 
H51   H     0.57888722491653 0.73724582703484 0.08161201568879 
H52   H     0.57921833705114 0.23708120837066 0.58071421867934 
H53   H     0.82921247121035 0.51289433630273 0.33286772440137 
H54   H     0.82930811772366 0.01293287471045 0.83193127187167 
H55   H     0.67086312041526 0.98732053302071 0.33671111546148 
H56   H     0.67077760043686 0.48730178541932 0.83624941232013 
H57   H     0.35855515619401 0.32503333585429 0.07721959513017 
H58   H     0.35838648293019 0.82533911393501 0.57605546154555 
H59   H     0.64149025564205 0.67479485426209 0.07505263365969 
H60   H     0.64165493289602 0.17450756190157 0.57392846525545 
H61   H     0.89163803957338 0.57553335836353 0.32492133072093 
H62   H     0.89166334357373 0.07562445282725 0.82368253237760 
H63   H     0.60844496957065 0.92467700399829 0.32637620300942 
H64   H     0.60841453728145 0.42461863885033 0.82558979919840 
