data_stdin
_audit_creation_method 'critic2'
_audit_creation_date 2023-8-11
_chemical_formula_sum 'C10 H8'
_cell_formula_units_Z 8
_cell_length_a        14.0112466977
_cell_length_b         8.6942775751
_cell_length_c        13.6349206140
_cell_angle_alpha        90.0004
_cell_angle_beta       113.9856
_cell_angle_gamma        90.0055
_cell_volume          1517.545444
_space_group_crystal_system monoclinic
_space_group_IT_number 15
_space_group_name_H-M_alt 'C2/c'
_space_group_name_Hall '-C 2yc'
loop_
_symmetry_equiv_pos_site_id
_symmetry_equiv_pos_as_xyz
 1 'x,y,z'
 2 '-1/2-x,-1/2-y,-z'
 3 '-x,y,-1/2-z'
 4 '-1/2+x,-1/2-y,-1/2+z'
 5 '-1/2+x,-1/2+y,z'
 6 '-x,-y,-z'
 7 '-1/2-x,-1/2+y,-1/2-z'
 8 'x,-y,-1/2+z'
loop_
_atom_site_label
_atom_site_type_symbol
_atom_site_fract_x
_atom_site_fract_y
_atom_site_fract_z
C1    C     0.34453164015971 0.06718809949131 0.96212583011192 
C2    C     0.34176602973478 0.19143014948586 0.89823949963548 
C3    C     0.36089881982268 0.17127181994175 0.80485449993165 
C4    C     0.38200893008053 0.02712139979208 0.77673423033357 
C5    C     0.38459690980286 0.89647149049334 0.84018695004166 
C6    C     0.36587146012690 0.91696236997538 0.93535249035834 
C7    C     0.36876010029214 0.78627983969876 0.99880663011003 
C8    C     0.38843395978328 0.64182023979201 0.96957902970841 
C9    C     0.40607640973795 0.62155846963437 0.87537146994669 
C10   C     0.40398174994140 0.74619079961754 0.81203014993167 
H1    H     0.32998690971137 0.08287314945427 0.03416347003528 
H2    H     0.32470731018659 0.30581629056970 0.91932713973414 
H3    H     0.35733667007929 0.27014875976960 0.75440572996770 
H4    H     0.39758434986275 0.01134160981287 0.70535381973714 
H5    H     0.35393582003324 0.80142119020101 0.07061970011484 
H6    H     0.39015951986426 0.54263344956870 0.01906060020540 
H7    H     0.42034185025738 0.50666953044364 0.85259153991494 
H8    H     0.41544596026770 0.73055297956934 0.73828573991139 
