data_stdin
_audit_creation_method 'critic2'
_audit_creation_date 2023-8-11
_chemical_formula_sum 'C10 H8'
_cell_formula_units_Z 4
_cell_length_a        12.0252405707
_cell_length_b         5.8217240530
_cell_length_c        10.0712303869
_cell_angle_alpha        90.0007
_cell_angle_beta        87.7547
_cell_angle_gamma        90.0017
_cell_volume           704.521674
_space_group_crystal_system monoclinic
_space_group_IT_number 14
_space_group_name_H-M_alt 'P2_1/c'
_space_group_name_Hall '-P 2ybc'
loop_
_symmetry_equiv_pos_site_id
_symmetry_equiv_pos_as_xyz
 1 'x,y,z'
 2 '-x,-y,-z'
 3 '-1/2-x,-1/2+y,-1/2-z'
 4 '-1/2+x,-1/2-y,-1/2+z'
loop_
_atom_site_label
_atom_site_type_symbol
_atom_site_fract_x
_atom_site_fract_y
_atom_site_fract_z
C1    C     0.63264851991944 0.75377653031011 0.50380631018195 
C2    C     0.71714277020636 0.81569912963943 0.41452423028072 
C3    C     0.77432765995024 0.02608032011466 0.42948103031428 
C4    C     0.74580690967535 0.17208225960370 0.53316832963078 
C5    C     0.65914511030633 0.11296005062634 0.62689499959599 
C6    C     0.60152690985665 0.89891846995575 0.61219906956898 
C7    C     0.51662992038340 0.83843974032407 0.70768402037829 
C8    C     0.49056517980631 0.98095590949971 0.81376711991627 
C9    C     0.54778046015153 0.19133151005477 0.82843815015265 
C10   C     0.62982003023648 0.25656845941750 0.73658672017423 
H1    H     0.58940320019290 0.59084606071782 0.49302794978928 
H2    H     0.74037585986305 0.70293218016263 0.33179497969184 
H3    H     0.84150216969342 0.07251900934055 0.35889017040490 
H4    H     0.78998485988356 0.33353997064734 0.54609225033202 
H5    H     0.47277557969397 0.67635616948400 0.69604736043171 
H6    H     0.42571923017791 0.93197683003843 0.88677170016150 
H7    H     0.52739159977871 0.30206239042163 0.91308935015161 
H8    H     0.67391241996289 0.41815755031623 0.74794890038640 
