data_stdin
_audit_creation_method 'critic2'
_audit_creation_date 2023-8-11
_chemical_formula_sum 'C10 H8'
_cell_formula_units_Z 4
_cell_length_a        15.4681799000
_cell_length_b         7.4381417900
_cell_length_c         6.2682512520
_cell_angle_alpha        90.0000
_cell_angle_beta        89.9985
_cell_angle_gamma        90.0000
_cell_volume           721.190610
_space_group_crystal_system orthorhombic
_space_group_IT_number 18
_space_group_name_H-M_alt 'P2_12_12'
_space_group_name_Hall 'P 2 2ab'
loop_
_symmetry_equiv_pos_site_id
_symmetry_equiv_pos_as_xyz
 1 'x,y,z'
 2 '-x,-y,z'
 3 '-1/2-x,-1/2+y,-z'
 4 '-1/2+x,-1/2-y,-z'
loop_
_atom_site_label
_atom_site_type_symbol
_atom_site_fract_x
_atom_site_fract_y
_atom_site_fract_z
C1    C     0.74043032994002 0.81351868027538 0.01979069946607 
C2    C     0.65294418995623 0.78010157949800 0.03645423936328 
C3    C     0.61938255981907 0.69130530036192 0.21828120045240 
C4    C     0.67348229998314 0.63991182976403 0.38241268948675 
C5    C     0.76366651990180 0.67458148033712 0.37121814076954 
C6    C     0.79794546967907 0.76181026956519 0.18521824936055 
C7    C     0.88825880030110 0.79551694035668 0.17372119023649 
C8    C     0.94228768015673 0.74563706962726 0.33867738950938 
C9    C     0.90823121011324 0.65958406041121 0.52172755052096 
C10   C     0.82098808000132 0.62467389985120 0.53769029971086 
H1    H     0.76636290020986 0.88094463969953 0.87968808035546 
H2    H     0.60965051021035 0.82390814983938 0.90972149997159 
H3    H     0.55032557977338 0.66382658025117 0.22899862069545 
H4    H     0.64802141016450 0.57049330006256 0.52201836073777 
H5    H     0.91358380021480 0.86282519960501 0.03252754982619 
H6    H     0.01136190020508 0.77288513009912 0.32965847007281 
H7    H     0.95130909027004 0.62022991006426 0.65078796032103 
H8    H     0.79508518018267 0.55884569977540 0.67888425035990 
