data_stdin
_audit_creation_method 'critic2'
_audit_creation_date 2023-8-11
_chemical_formula_sum 'C10 H8'
_cell_formula_units_Z 8
_cell_length_a        10.8315357482
_cell_length_b        12.3952300826
_cell_length_c        11.1102642291
_cell_angle_alpha        89.9994
_cell_angle_beta        85.9871
_cell_angle_gamma        90.0018
_cell_volume          1488.000119
_space_group_crystal_system monoclinic
_space_group_IT_number 15
_space_group_name_H-M_alt 'C2/c'
_space_group_name_Hall '-C 2yc'
loop_
_symmetry_equiv_pos_site_id
_symmetry_equiv_pos_as_xyz
 1 'x,y,z'
 2 '-x,-y,-z'
 3 '-x,y,-1/2-z'
 4 '-1/2+x,-1/2-y,-1/2+z'
 5 '-1/2+x,-1/2+y,z'
 6 '-1/2-x,-1/2-y,-z'
 7 '-1/2-x,-1/2+y,-1/2-z'
 8 'x,-y,-1/2+z'
loop_
_atom_site_label
_atom_site_type_symbol
_atom_site_fract_x
_atom_site_fract_y
_atom_site_fract_z
C1    C     0.31806138040029 0.23659541997803 0.23417884987183 
C2    C     0.28092879012220 0.32770694967835 0.17541561953960 
C3    C     0.29235257965351 0.43056034993562 0.22872387039603 
C4    C     0.34018703034896 0.44075080020331 0.33993855963824 
C5    C     0.38012590006249 0.34860504030323 0.40231170038315 
C6    C     0.36910970977828 0.24431717004036 0.34807222971535 
C7    C     0.41163070038870 0.15262239018627 0.40943287974235 
C8    C     0.46219114993196 0.16267722993886 0.51935882011545 
C9    C     0.47305052031573 0.26549694986805 0.57256808030561 
C10   C     0.43251883038716 0.35628260033695 0.51547354022917 
H1    H     0.31076955970918 0.15744223010514 0.19267613986258 
H2    H     0.24331280979847 0.32089957019619 0.08735635002297 
H3    H     0.26468074965763 0.50210066979258 0.18067718016239 
H4    H     0.34907881968256 0.52001675985755 0.38104312982520 
H5    H     0.40468827956887 0.07365454036729 0.36736797965295 
H6    H     0.49376440008928 0.09150793004801 0.56579244001664 
H7    H     0.51468151983021 0.27267245028607 0.65851108015410 
H8    H     0.44026456016595 0.43536656019100 0.55700473980715 
