data_stdin
_audit_creation_method 'critic2'
_audit_creation_date 2023-8-11
_chemical_formula_sum 'C10 H8'
_cell_formula_units_Z 4
_cell_length_a        14.6553072600
_cell_length_b         8.6763650100
_cell_length_c         5.8647831845
_cell_angle_alpha        89.9999
_cell_angle_beta        90.0022
_cell_angle_gamma        90.0000
_cell_volume           745.735304
_space_group_crystal_system orthorhombic
_space_group_IT_number 29
_space_group_name_H-M_alt 'Pca2_1'
_space_group_name_Hall 'P 2c -2ac'
loop_
_symmetry_equiv_pos_site_id
_symmetry_equiv_pos_as_xyz
 1 'x,y,z'
 2 '-x,-y,-1/2+z'
 3 '-1/2-x,y,-1/2+z'
 4 '-1/2+x,-y,z'
loop_
_atom_site_label
_atom_site_type_symbol
_atom_site_fract_x
_atom_site_fract_y
_atom_site_fract_z
C1    C     0.65773523988396 0.25042572990807 0.00039015947043 
C2    C     0.63015960986923 0.10488547955109 0.06558531982762 
C3    C     0.58478175979087 0.08225227952330 0.27629478923607 
C4    C     0.56825182004647 0.20533986040220 0.41923164975253 
C5    C     0.59566879983632 0.35659294976659 0.35739026967642 
C6    C     0.64063247009651 0.37977679024039 0.14269664012937 
C7    C     0.66620428005189 0.53153305942389 0.07896985076687 
C8    C     0.64852689967679 0.65473199962993 0.22118605971203 
C9    C     0.60456829969390 0.63174780009893 0.43345321023595 
C10   C     0.57886639990788 0.48556700968012 0.50019353027080 
H1    H     0.69265248990496 0.26785299998746 0.83847773926187 
H2    H     0.64311038987231 0.00699648015193 0.95368903084454 
H3    H     0.56267294018096 0.96724986049393 0.32614437916757 
H4    H     0.53386526997239 0.18860622008328 0.58191978016101 
H5    H     0.70029638980719 0.54903515983736 0.91621055025473 
H6    H     0.66952927968670 0.77024145974758 0.17070799023052 
H7    H     0.59081656016902 0.72934242963322 0.54532011038059 
H8    H     0.54505477006664 0.46738149041977 0.66317928029531 
