data_stdin
_audit_creation_method 'critic2'
_audit_creation_date 2023-8-11
_chemical_formula_sum 'C10 H8'
_cell_formula_units_Z 4
_cell_length_a         5.8152844281
_cell_length_b        23.8188591624
_cell_length_c         6.4979859588
_cell_angle_alpha        90.0009
_cell_angle_beta        56.3414
_cell_angle_gamma        89.9960
_cell_volume           749.167877
_space_group_crystal_system monoclinic
_space_group_IT_number 14
_space_group_name_H-M_alt 'P2_1/c'
_space_group_name_Hall '-P 2ybc'
loop_
_symmetry_equiv_pos_site_id
_symmetry_equiv_pos_as_xyz
 1 'x,y,z'
 2 '-x,-y,-z'
 3 '-x,-1/2+y,-1/2-z'
 4 'x,-1/2-y,-1/2+z'
loop_
_atom_site_label
_atom_site_type_symbol
_atom_site_fract_x
_atom_site_fract_y
_atom_site_fract_z
C1    C     0.70507291953644 0.16958748997333 0.07016103081857 
C2    C     0.84795297899830 0.21089353007012 0.89540270075306 
C3    C     0.14044504048206 0.21096039983893 0.74857550938146 
C4    C     0.28598565948070 0.16967883986336 0.77839106974842 
C5    C     0.14525384956213 0.12605771006176 0.95433507076856 
C6    C     0.84852864910352 0.12603850019482 0.10350051024300 
C7    C     0.70804153912094 0.08234710004945 0.27874991009145 
C8    C     0.85342224078734 0.04049700015293 0.30557837974580 
C9    C     0.14565952955426 0.04052845995775 0.15871710937172 
C10   C     0.28844929099663 0.08240080016782 0.98704168938406 
H1    H     0.47993901034965 0.16949020001744 0.18444931948470 
H2    H     0.73791286024241 0.24383398010203 0.86780014002991 
H3    H     0.24834194062244 0.24400206019511 0.61185224944655 
H4    H     0.51114867988666 0.16967797988008 0.66672372062215 
H5    H     0.48294070908838 0.08270963993754 0.39187906022296 
H6    H     0.74375180020792 0.00692748013870 0.43897607039619 
H7    H     0.25735553085056 0.00700287998335 0.18100277934910 
H8    H     0.51354477986330 0.08282190006983 0.87403678927040 
