data_stdin
_audit_creation_method 'critic2'
_audit_creation_date 2023-8-11
_chemical_formula_sum 'C10 H8'
_cell_formula_units_Z 8
_cell_length_a         5.8454053630
_cell_length_b        17.1932173702
_cell_length_c        14.6909504900
_cell_angle_alpha        90.0000
_cell_angle_beta        90.0011
_cell_angle_gamma        89.9988
_cell_volume          1476.459989
_space_group_crystal_system orthorhombic
_space_group_IT_number 61
_space_group_name_H-M_alt 'Pbca'
_space_group_name_Hall '-P 2ac 2ab'
loop_
_symmetry_equiv_pos_site_id
_symmetry_equiv_pos_as_xyz
 1 'x,y,z'
 2 '-x,-y,-z'
 3 '-1/2-x,-y,-1/2+z'
 4 '-1/2+x,y,-1/2-z'
 5 '-1/2+x,-1/2-y,-z'
 6 '-1/2-x,-1/2+y,z'
 7 '-x,-1/2+y,-1/2-z'
 8 'x,-1/2-y,-1/2+z'
loop_
_atom_site_label
_atom_site_type_symbol
_atom_site_fract_x
_atom_site_fract_y
_atom_site_fract_z
C1    C     0.08652897959202 0.62482507982790 0.83926109024540 
C2    C     0.01974353986890 0.55117836991434 0.86541937970092 
C3    C     0.80927496046194 0.53974375988366 0.91133060017420 
C4    C     0.66742399080226 0.60192075991912 0.92935561976012 
C5    C     0.73059096008678 0.67844667020767 0.90310661012795 
C6    C     0.94562585015894 0.69026343014843 0.85800497010670 
C7    C     0.01082118994464 0.76705066016679 0.83376804024567 
C8    C     0.86968547069324 0.82935810026754 0.85278151016039 
C9    C     0.65679109023035 0.81752527004142 0.89662176016193 
C10   C     0.58872102049591 0.74359973002201 0.92111524967179 
H1    H     0.24859424016883 0.63366571026975 0.80418710030378 
H2    H     0.13013090972462 0.50155989018392 0.85112690971442 
H3    H     0.76035654005105 0.48157895986586 0.93310179011084 
H4    H     0.50463777977168 0.59353587989016 0.96406487996158 
H5    H     0.17403243973951 0.77593579001968 0.79969741989798 
H6    H     0.92192195062337 0.88791359976492 0.83325358020039 
H7    H     0.54516012973562 0.86662560027649 0.91163426969903 
H8    H     0.42532664927962 0.73442605001978 0.95493833026132 
