data_stdin
_audit_creation_method 'critic2'
_audit_creation_date 2023-8-11
_chemical_formula_sum 'C10 H8'
_cell_formula_units_Z 4
_cell_length_a        16.1083688100
_cell_length_b         6.5431791000
_cell_length_c         7.6875058505
_cell_angle_alpha        90.0000
_cell_angle_beta        89.9993
_cell_angle_gamma        90.0000
_cell_volume           810.262672
_space_group_crystal_system triclinic
_space_group_IT_number 1
_space_group_name_H-M_alt 'P 1'
_space_group_name_Hall 'P 1'
loop_
_symmetry_equiv_pos_site_id
_symmetry_equiv_pos_as_xyz
 1 'x,y,z'
loop_
_atom_site_label
_atom_site_type_symbol
_atom_site_fract_x
_atom_site_fract_y
_atom_site_fract_z
C1    C     0.67291345984845 0.41129573950424 0.96628668942197 
C2    C     0.32708679983129 0.58870640073863 0.46628896969062 
C3    C     0.82708716012906 0.91129377955584 0.46628761984522 
C4    C     0.17291327028097 0.08870428010192 0.96628612056980 
C5    C     0.59908932027079 0.41061450995680 0.87550459058564 
C6    C     0.40091085998870 0.58938661977917 0.37550749026985 
C7    C     0.90091112992983 0.91061358955609 0.37550585047622 
C8    C     0.09908906027357 0.08938544945319 0.87550431038092 
C9    C     0.59906532982416 0.41061314045993 0.69147628968475 
C10   C     0.40093463974205 0.58938571030195 0.19147918019644 
C11   C     0.90093474020566 0.91061433982253 0.19147754950857 
C12   C     0.09906491028201 0.08938669947808 0.69147600948000 
C13   C     0.67286660973100 0.41129307065605 0.60061366043892 
C14   C     0.32713329001505 0.58870480017578 0.10061594057695 
C15   C     0.82713332004910 0.91129516989385 0.10061458943091 
C16   C     0.17286609983209 0.08870679069320 0.60061309028589 
C17   C     0.74998413018416 0.41166368055485 0.68992432947844 
C18   C     0.25001578972736 0.58833545926151 0.18992600975759 
C19   C     0.75001589969151 0.91166452035972 0.18992494992127 
C20   C     0.24998368996730 0.08833630976661 0.68992347061734 
C21   C     0.75000842015026 0.41166699998089 0.87689237058067 
C22   C     0.24999180975422 0.58833386976021 0.37689404962699 
C23   C     0.74999207988285 0.91166614947733 0.37689300019662 
C24   C     0.25000815996547 0.08833301008605 0.87689150001265 
C25   C     0.82712589978711 0.41130059963959 0.96620203026202 
C26   C     0.17287437015973 0.58870064044044 0.46620311971210 
C27   C     0.67287471989843 0.91129927983888 0.46620235002778 
C28   C     0.32712572015771 0.08869942936145 0.96620086043563 
C29   C     0.90092741028914 0.41062331037646 0.87533887952265 
C30   C     0.09907277991043 0.58937726002032 0.37533938955437 
C31   C     0.59907304984141 0.91062258937409 0.37533889057109 
C32   C     0.40092715030215 0.08937675073402 0.87533741037746 
C33   C     0.90090345025835 0.41062213955974 0.69131113016601 
C34   C     0.09909650006414 0.58937731032117 0.19131162972444 
C35   C     0.59909660982995 0.91062258924073 0.19131112944057 
C36   C     0.40090302017296 0.08937799006071 0.69130965972000 
C37   C     0.82707891991864 0.41129571932811 0.60052994046565 
C38   C     0.17292096028545 0.58870305016054 0.10053102978418 
C39   C     0.67292100024821 0.91129689066848 0.10053027050725 
C40   C     0.32707840009135 0.08870435926593 0.60052877974446 
H1    H     0.67308602969562 0.41113580945549 0.10796018008537 
H2    H     0.32691427011457 0.58886799024995 0.60796239056138 
H3    H     0.82691475029183 0.91113226007568 0.60796103944652 
H4    H     0.17308596980898 0.08886426946361 0.10795962030749 
H5    H     0.54024836019191 0.40903889073562 0.94512627987801 
H6    H     0.45975190992384 0.59096283047509 0.44512942965043 
H7    H     0.95975225003922 0.90903750995326 0.44512754951402 
H8    H     0.04024815976703 0.09096113935634 0.94512621009731 
H9    H     0.54020574006990 0.40903994052888 0.62192344946422 
H10   H     0.45979414010755 0.59095832944733 0.12192660041933 
H11   H     0.95979417975611 0.90904168055120 0.12192473979468 
H12   H     0.04020524973393 0.09095978970436 0.62192340960283 
H13   H     0.67300611003581 0.41111974067538 0.45894010042861 
H14   H     0.32699375020220 0.58887645999572 0.95894230027283 
H15   H     0.82699365987209 0.91112342936274 0.95894095046127 
H16   H     0.17300548025261 0.08888005064464 0.45893953024192 
H17   H     0.82698784973038 0.41113022972057 0.10787559030384 
H18   H     0.17301248021090 0.58887196985646 0.60787675998476 
H19   H     0.67301293990035 0.91112793943557 0.60787599033371 
H20   H     0.32698778984489 0.08886978066768 0.10787442044404 
H21   H     0.95978635007832 0.40904917020169 0.94489429045571 
H22   H     0.04021395989999 0.59095202988631 0.44489457064750 
H23   H     0.54021429006934 0.90904772972739 0.44489429961352 
H24   H     0.45978615028751 0.09095086000883 0.94489259986524 
H25   H     0.95974380013023 0.40905837046755 0.62168686947541 
H26   H     0.04025604981123 0.59094046042938 0.12168713003869 
H27   H     0.54025609999724 0.90905945934232 0.12168683949064 
H28   H     0.45974328994569 0.09094185964192 0.62168513986279 
H29   H     0.82690606022593 0.41113274976373 0.45885646024065 
H30   H     0.17309377984743 0.58886506022790 0.95885762058875 
H31   H     0.67309370006288 0.91113487934386 0.95885686004279 
H32   H     0.32690540996505 0.08886735051776 0.45885529948785 
