data_stdin
_audit_creation_method 'critic2'
_audit_creation_date 2023-8-11
_chemical_formula_sum 'C10 H8'
_cell_formula_units_Z 4
_cell_length_a         4.1920327281
_cell_length_b         5.8995666509
_cell_length_c        30.1892914640
_cell_angle_alpha        89.9990
_cell_angle_beta        89.9577
_cell_angle_gamma        90.0012
_cell_volume           746.616491
_space_group_crystal_system monoclinic
_space_group_IT_number 14
_space_group_name_H-M_alt 'P2_1/c'
_space_group_name_Hall '-P 2ybc'
loop_
_symmetry_equiv_pos_site_id
_symmetry_equiv_pos_as_xyz
 1 'x,y,z'
 2 '-x,-y,-z'
 3 '-x,-1/2+y,-1/2-z'
 4 'x,-1/2-y,-1/2+z'
loop_
_atom_site_label
_atom_site_type_symbol
_atom_site_fract_x
_atom_site_fract_y
_atom_site_fract_z
C1    C     0.25165253043012 0.66004358977007 0.16568030002938 
C2    C     0.27446635065885 0.52974080064644 0.20345072989009 
C3    C     0.12542152979876 0.31480087994956 0.20548151999047 
C4    C     0.95694363964661 0.23322089983172 0.16965145001481 
C5    C     0.92924394105111 0.36282310003305 0.13026046013632 
C6    C     0.07884370909068 0.58143508970653 0.12829954983633 
C7    C     0.04950523893765 0.71160762075281 0.08898827992975 
C8    C     0.88083801993543 0.63006762058409 0.05317639999829 
C9    C     0.73417661883837 0.41414156925676 0.05505987002480 
C10   C     0.75727715002132 0.28391933073384 0.09282648999743 
H1    H     0.36660060950441 0.82542867054745 0.16397398989246 
H2    H     0.40862152989502 0.59136067040101 0.23186026014162 
H3    H     0.14129925067456 0.21427357039292 0.23564831000734 
H4    H     0.84118972954914 0.06804249926483 0.17126092005417 
H5    H     0.16418841080679 0.87716059996103 0.08745391997038 
H6    H     0.86186776998313 0.73133626001041 0.02311154002612 
H7    H     0.60034962028596 0.35214265929894 0.02664462987127 
H8    H     0.64233274104000 0.11853603996689 0.09454866990366 
