data_stdin
_audit_creation_method 'critic2'
_audit_creation_date 2023-8-11
_chemical_formula_sum 'C10 H8'
_cell_formula_units_Z 16
_cell_length_a        17.7274185906
_cell_length_b        29.4095365434
_cell_length_c         5.9092479683
_cell_angle_alpha        89.9991
_cell_angle_beta        89.9976
_cell_angle_gamma        90.0018
_cell_volume          3080.816944
_space_group_crystal_system orthorhombic
_space_group_IT_number 43
_space_group_name_H-M_alt 'Fdd2'
_space_group_name_Hall 'F 2 -2d'
loop_
_symmetry_equiv_pos_site_id
_symmetry_equiv_pos_as_xyz
 1 'x,y,z'
 2 '-x,-1/2-y,-1/2+z'
 3 '-1/4-x,-3/4+y,-1/4+z'
 4 '-1/4+x,-3/4-y,-1/4+z'
 5 'x,-1/2+y,-1/2+z'
 6 '-x,-y,z'
 7 '-1/4-x,-1/4+y,-3/4+z'
 8 '-1/4+x,-1/4-y,-3/4+z'
 9 '-1/2+x,y,-1/2+z'
 10 '-1/2-x,-1/2-y,z'
 11 '-3/4-x,-3/4+y,-3/4+z'
 12 '-3/4+x,-3/4-y,-3/4+z'
 13 '-1/2+x,-1/2+y,z'
 14 '-1/2-x,-y,-1/2+z'
 15 '-3/4-x,-1/4+y,-1/4+z'
 16 '-3/4+x,-1/4-y,-1/4+z'
loop_
_atom_site_label
_atom_site_type_symbol
_atom_site_fract_x
_atom_site_fract_y
_atom_site_fract_z
C1    C     0.38199088022311 0.52752903016072 0.51052251012537 
C2    C     0.39671668975966 0.49339634999412 0.66457289008480 
C3    C     0.35673541000908 0.49133112007899 0.87165868036522 
C4    C     0.30261707999633 0.52355641002372 0.92161730948025 
C5    C     0.28604504985706 0.55912056009634 0.76685097926947 
C6    C     0.32666294004554 0.56118080011089 0.55675184035739 
C7    C     0.30909950996509 0.59629991005361 0.40077170056535 
C8    C     0.25356361983457 0.62765136997850 0.44834421057854 
C9    C     0.21380356004147 0.62585479015442 0.65589071056410 
C10   C     0.22974119996378 0.59232339992109 0.81199178075256 
H1    H     0.41192869012633 0.52875630994427 0.34936209920923 
H2    H     0.43900051976652 0.46765146988794 0.62746376979769 
H3    H     0.36791577993830 0.46374519991901 0.99005269936218 
H4    H     0.27134692978457 0.52186189007859 0.07992596069860 
H5    H     0.33927611973487 0.59763128010495 0.24041964921011 
H6    H     0.23917798985376 0.65377075016758 0.32525648045783 
H7    H     0.17012748003836 0.65102277006342 0.68894471990024 
H8    H     0.19904331012552 0.59042038985622 0.97158441047461 
