data_stdin
_audit_creation_method 'critic2'
_audit_creation_date 2023-8-11
_chemical_formula_sum 'C10 H8'
_cell_formula_units_Z 8
_cell_length_a        15.3767030700
_cell_length_b         6.9914103307
_cell_length_c        14.1366556600
_cell_angle_alpha        89.9992
_cell_angle_beta        90.0000
_cell_angle_gamma        89.9999
_cell_volume          1519.758915
_space_group_crystal_system orthorhombic
_space_group_IT_number 41
_space_group_name_H-M_alt 'Aea2'
_space_group_name_Hall 'A 2 -2ac'
loop_
_symmetry_equiv_pos_site_id
_symmetry_equiv_pos_as_xyz
 1 'x,y,z'
 2 '-x,-y,z'
 3 '-1/2-x,-1/2+y,z'
 4 '-1/2+x,-1/2-y,z'
 5 'x,-1/2+y,-1/2+z'
 6 '-x,-1/2-y,-1/2+z'
 7 '-1/2-x,y,-1/2+z'
 8 '-1/2+x,-y,-1/2+z'
loop_
_atom_site_label
_atom_site_type_symbol
_atom_site_fract_x
_atom_site_fract_y
_atom_site_fract_z
C1    C     0.44892277988243 0.76229771998632 0.00175171965552 
C2    C     0.42901421027771 0.80584317048571 0.09430558008169 
C3    C     0.36664928026572 0.94854920013578 0.11544540989202 
C4    C     0.32573267981356 0.04698451039585 0.04351713021153 
C5    C     0.34458286975410 0.00487227960821 0.94734979006353 
C6    C     0.40676139979447 0.85772162016805 0.92597386034148 
C7    C     0.42334936991188 0.81149754030036 0.82985842981492 
C8    C     0.38077234987313 0.90629796957973 0.75790041964907 
C9    C     0.32075657976957 0.05368381966218 0.77904486976026 
C10   C     0.30311991985937 0.10216111966250 0.87162723982986 
H1    H     0.49807503028221 0.65507395040306 0.98543394992076 
H2    H     0.46123026973095 0.73067803939043 0.15188207019553 
H3    H     0.35156831979125 0.98080886966965 0.18901788970492 
H4    H     0.27814103010574 0.15839903962534 0.05905829018713 
H5    H     0.47056507020886 0.69961317989397 0.81398166973685 
H6    H     0.39322139992865 0.86868478943249 0.68435448014001 
H7    H     0.28854225009881 0.12962255968645 0.72175090997920 
H8    H     0.25665465004881 0.21494422994002 0.88772768012431 
