data_stdin
_audit_creation_method 'critic2'
_audit_creation_date 2023-8-11
_chemical_formula_sum 'C10 H8'
_cell_formula_units_Z 2
_cell_length_a         8.1001649401
_cell_length_b         3.9235608680
_cell_length_c        11.9421430679
_cell_angle_alpha        88.3163
_cell_angle_beta        74.4774
_cell_angle_gamma        99.1255
_cell_volume           360.036390
_space_group_crystal_system triclinic
_space_group_IT_number 2
_space_group_name_H-M_alt 'P-1'
_space_group_name_Hall '-P 1'
loop_
_symmetry_equiv_pos_site_id
_symmetry_equiv_pos_as_xyz
 1 'x,y,z'
 2 '-x,-y,-z'
 3 '-1/2+x,y,-1/2+z'
 4 '-1/2-x,-y,-1/2-z'
loop_
_atom_site_label
_atom_site_type_symbol
_atom_site_fract_x
_atom_site_fract_y
_atom_site_fract_z
C1    C     0.21847434039271 0.46914193986815 0.41135618958954 
C2    C     0.36996106013790 0.67043441983662 0.41947484014632 
C3    C     0.49676103060578 0.82834704023924 0.31777664000489 
C4    C     0.46941243033606 0.78398103973904 0.20967140037432 
C5    C     0.31427273991115 0.58041679102426 0.19837367028337 
H1    H     0.12117050972893 0.34615116879315 0.48960323000390 
H2    H     0.39316572017299 0.70643520992210 0.50435447005189 
H3    H     0.61550369000950 0.98879876087792 0.32516948033665 
H4    H     0.56682201971170 0.90537396991529 0.13114517973227 
