data_stdin
_audit_creation_method 'critic2'
_audit_creation_date 2023-8-11
_chemical_formula_sum 'C10 H8'
_cell_formula_units_Z 4
_cell_length_a         7.9413507764
_cell_length_b         5.8071476800
_cell_length_c        15.2745090958
_cell_angle_alpha        89.9969
_cell_angle_beta        83.1121
_cell_angle_gamma        89.9996
_cell_volume           699.324373
_space_group_crystal_system monoclinic
_space_group_IT_number 14
_space_group_name_H-M_alt 'P2_1/c'
_space_group_name_Hall '-P 2ybc'
loop_
_symmetry_equiv_pos_site_id
_symmetry_equiv_pos_as_xyz
 1 'x,y,z'
 2 '-x,-y,-z'
 3 '-1/2-x,-1/2+y,-z'
 4 '-1/2+x,-1/2-y,z'
 5 '-1/2+x,y,-1/2+z'
 6 '-1/2-x,-y,-1/2-z'
 7 '-x,-1/2+y,-1/2-z'
 8 'x,-1/2-y,-1/2+z'
loop_
_atom_site_label
_atom_site_type_symbol
_atom_site_fract_x
_atom_site_fract_y
_atom_site_fract_z
C1    C     0.86725715091671 0.75099790869841 0.69473255757061 
C2    C     0.87693027870027 0.68667485008784 0.60736950853759 
C3    C     0.80465009064729 0.47633333886436 0.58337515062721 
C4    C     0.72458845671944 0.33265985798890 0.64727381358727 
C5    C     0.71388184681252 0.39295109726798 0.73790829011439 
H1    H     0.92209819980318 0.91315948998903 0.71300808731766 
H2    H     0.94080861314878 0.79857007319953 0.55660525759686 
H3    H     0.81264587920604 0.42806916335237 0.51410595216319 
H4    H     0.66791516135106 0.17092696009702 0.62947423566431 
