data_stdin
_audit_creation_method 'critic2'
_audit_creation_date 2023-8-11
_chemical_formula_sum 'C10 H8'
_cell_formula_units_Z 4
_cell_length_a         5.9896643919
_cell_length_b        18.5699707008
_cell_length_c         7.1018788517
_cell_angle_alpha        90.0695
_cell_angle_beta        71.3626
_cell_angle_gamma        90.0805
_cell_volume           748.502049
_space_group_crystal_system triclinic
_space_group_IT_number 2
_space_group_name_H-M_alt 'P-1'
_space_group_name_Hall '-P 1'
loop_
_symmetry_equiv_pos_site_id
_symmetry_equiv_pos_as_xyz
 1 'x,y,z'
 2 '-x,-y,-z'
loop_
_atom_site_label
_atom_site_type_symbol
_atom_site_fract_x
_atom_site_fract_y
_atom_site_fract_z
C1    C     0.04591874986459 0.09228805974849 0.76923253932943 
C2    C     0.45476018046064 0.59207473024584 0.73098133953214 
C3    C     0.85495736029283 0.04697804006093 0.84053088933467 
C4    C     0.64566399014742 0.54687446999485 0.65934917925906 
C5    C     0.70317846022578 0.03357757978500 0.72731687039128 
C6    C     0.79733021011253 0.53345755002595 0.77249784981729 
C7    C     0.74214655034571 0.06672679976096 0.54611856987130 
C8    C     0.75818005896808 0.56645682999212 0.95409016058866 
C9    C     0.93524807045659 0.11442228016880 0.46931257070109 
C10   C     0.56512578003110 0.61403755011207 0.03126008017728 
C11   C     0.09206962014790 0.12673693990486 0.58233948056064 
C12   C     0.40849743957896 0.62640586993062 0.91822068991632 
C13   C     0.28826224987247 0.17318931988871 0.50390440051107 
C14   C     0.21237131021048 0.67274642009105 0.99704038064150 
C15   C     0.32879773050246 0.20593673973319 0.32183794969259 
C16   C     0.17157186917939 0.70527250000562 0.17959742019496 
C17   C     0.17316821973049 0.19422936993016 0.21089694010583 
C18   C     0.32690115008928 0.69346017012649 0.29061722976786 
C19   C     0.97999888921832 0.14970123990811 0.28350431016605 
C20   C     0.52014353971662 0.64909387982850 0.21756132972377 
H1    H     0.16471032009302 0.10228459002084 0.85506195962533 
H2    H     0.33585471920008 0.60190414008325 0.64528561009383 
H3    H     0.82178463971218 0.02059062011103 0.98368070025816 
H4    H     0.67880590920765 0.52055683001188 0.51597252007929 
H5    H     0.55707767044872 0.99607680994330 0.78330565948521 
H6    H     0.94340088091208 0.49604563026887 0.71619231974645 
H7    H     0.62521038942843 0.05668923007764 0.45890205007835 
H8    H     0.87484548036035 0.55633466982615 0.04139921967568 
H9    H     0.40690584037301 0.18245425984133 0.59020865977149 
H10   H     0.09387673915641 0.68201756985879 0.91071155010155 
H11   H     0.47983685044671 0.24127069000150 0.26218780992670 
H12   H     0.02049577955271 0.74048323021963 0.23961595957590 
H13   H     0.20818855080738 0.22077867023123 0.06759261955453 
H14   H     0.29164938985604 0.71982156981831 0.43433207966177 
H15   H     0.85946654057671 0.14085012013610 0.19867677026748 
H16   H     0.64058059934427 0.64026202995824 0.30236809999582 
