data_stdin
_audit_creation_method 'critic2'
_audit_creation_date 2023-8-11
_chemical_formula_sum 'C10 H8'
_cell_formula_units_Z 4
_cell_length_a        12.0876013093
_cell_length_b         6.6682203701
_cell_length_c         9.4231038837
_cell_angle_alpha        89.9998
_cell_angle_beta        96.6781
_cell_angle_gamma        90.0002
_cell_volume           754.375214
_space_group_crystal_system monoclinic
_space_group_IT_number 5
_space_group_name_H-M_alt 'C2'
_space_group_name_Hall 'C 2y'
loop_
_symmetry_equiv_pos_site_id
_symmetry_equiv_pos_as_xyz
 1 'x,y,z'
 2 '-1/2-x,-1/2+y,-z'
 3 '-1/2+x,-1/2+y,z'
 4 '-x,y,-z'
loop_
_atom_site_label
_atom_site_type_symbol
_atom_site_fract_x
_atom_site_fract_y
_atom_site_fract_z
C1    C     0.40474763164590 0.02039907207788 0.82556968148927 
C2    C     0.34069661197464 0.88254703879149 0.88829135559351 
C3    C     0.22397486695746 0.90839238169387 0.88157668410820 
C4    C     0.17345497603653 0.07208661307463 0.81183651790010 
C5    C     0.23677605500929 0.21601958273066 0.74502756524440 
C6    C     0.35507778325488 0.18914462432678 0.75155092485899 
C7    C     0.41824322579965 0.33104040332199 0.68252837665805 
C8    C     0.36734043341900 0.49455193641780 0.61294967031026 
C9    C     0.25090097268960 0.52267868574455 0.60781824786399 
C10   C     0.18718013474405 0.38521441335738 0.67147879096725 
H1    H     0.49485533365809 0.00250966565529 0.83324818673175 
H2    H     0.37908261337322 0.75208917782890 0.94316300465749 
H3    H     0.17488028889289 0.79862695298031 0.93272809213592 
H4    H     0.08365742019173 0.09323262369963 0.80673388012754 
H5    H     0.50768257423227 0.30797309117952 0.68463141773143 
H6    H     0.41619094274662 0.60341399459025 0.56070890640298 
H7    H     0.21217840166940 0.65269061055382 0.55284231152254 
H8    H     0.09720588526268 0.40459384089652 0.66555270902926 
