data_stdin
_audit_creation_method 'critic2'
_audit_creation_date 2023-8-11
_chemical_formula_sum 'C10 H8'
_cell_formula_units_Z 8
_cell_length_a        15.8561018721
_cell_length_b        12.1605070442
_cell_length_c         7.9263216306
_cell_angle_alpha        90.0004
_cell_angle_beta        89.9993
_cell_angle_gamma        90.0037
_cell_volume          1528.339371
_space_group_crystal_system orthorhombic
_space_group_IT_number 56
_space_group_name_H-M_alt 'Pccn'
_space_group_name_Hall '-P 2ab 2ac'
loop_
_symmetry_equiv_pos_site_id
_symmetry_equiv_pos_as_xyz
 1 'x,y,z'
 2 '-x,-y,-z'
 3 '-1/2-x,-1/2-y,z'
 4 '-1/2+x,-1/2+y,-z'
 5 '-x,-1/2+y,-1/2-z'
 6 'x,-1/2-y,-1/2+z'
 7 '-1/2+x,-y,-1/2-z'
 8 '-1/2-x,y,-1/2+z'
loop_
_atom_site_label
_atom_site_type_symbol
_atom_site_fract_x
_atom_site_fract_y
_atom_site_fract_z
C1    C     0.06759210009188 0.99652393001181 0.82361932971678 
C2    C     0.15236689990372 0.01699717022816 0.84680856988891 
C3    C     0.19287117003964 0.10271720987435 0.75687246038819 
C4    C     0.14753648976915 0.16661984979259 0.64508922964897 
C5    C     0.05983975004230 0.14903811978100 0.62089955021401 
C6    C     0.01891402978420 0.06242233965204 0.71254321964854 
C7    C     0.93087657993776 0.04662388018842 0.69073578040418 
C8    C     0.88529960999549 0.11358644010293 0.58387487978944 
C9    C     0.92585681999832 0.19833377995195 0.49231197033370 
C10   C     0.01133727989196 0.21546231977007 0.51050491030846 
H1    H     0.03697468011688 0.92939721983060 0.89067994004345 
H2    H     0.18835080013071 0.96706737012226 0.93528734984862 
H3    H     0.25981464001055 0.11819113975691 0.77699313013251 
H4    H     0.17789006970585 0.23239971997529 0.57399604039806 
H5    H     0.90024457002659 0.98025801021907 0.75985229987269 
H6    H     0.81791795031328 0.10035389997011 0.56756147010479 
H7    H     0.88976455992275 0.24963583992484 0.40582891991482 
H8    H     0.04289087016860 0.28013914987873 0.43971489059831 
