data_stdin
_audit_creation_method 'critic2'
_audit_creation_date 2023-8-11
_chemical_formula_sum 'C10 H8'
_cell_formula_units_Z 16
_cell_length_a        16.3549508440
_cell_length_b        24.0234393200
_cell_length_c         7.5940765132
_cell_angle_alpha        89.9986
_cell_angle_beta        89.9989
_cell_angle_gamma        90.0012
_cell_volume          2983.729133
_space_group_crystal_system orthorhombic
_space_group_IT_number 43
_space_group_name_H-M_alt 'Fdd2'
_space_group_name_Hall 'F 2 -2d'
loop_
_symmetry_equiv_pos_site_id
_symmetry_equiv_pos_as_xyz
 1 'x,y,z'
 2 '-1/2-x,-y,-1/2+z'
 3 '-1/4-x,-3/4+y,-1/4+z'
 4 '-1/4+x,-3/4-y,-1/4+z'
 5 'x,-1/2+y,-1/2+z'
 6 '-1/2-x,-1/2-y,z'
 7 '-1/4-x,-1/4+y,-3/4+z'
 8 '-1/4+x,-1/4-y,-3/4+z'
 9 '-1/2+x,y,-1/2+z'
 10 '-x,-y,z'
 11 '-3/4-x,-3/4+y,-3/4+z'
 12 '-3/4+x,-3/4-y,-3/4+z'
 13 '-1/2+x,-1/2+y,z'
 14 '-x,-1/2-y,-1/2+z'
 15 '-3/4-x,-1/4+y,-1/4+z'
 16 '-3/4+x,-1/4-y,-1/4+z'
loop_
_atom_site_label
_atom_site_type_symbol
_atom_site_fract_x
_atom_site_fract_y
_atom_site_fract_z
C1    C     0.33440285027216 0.34361394018980 0.49708086972951 
C2    C     0.39587966975709 0.37734072003860 0.56046410041237 
C3    C     0.38755809980410 0.43592061998160 0.55476094064918 
C4    C     0.31798196000522 0.45985329010028 0.48569754064265 
C5    C     0.25373133975481 0.42628319987512 0.41889946053143 
C6    C     0.26207964014282 0.36686616983362 0.42473748014510 
C7    C     0.19762330008377 0.33347210988716 0.35773094970630 
C8    C     0.12821676007075 0.35741486986517 0.28831446965386 
C9    C     0.12009131995327 0.41600194014033 0.28235267965280 
C10   C     0.18146590011512 0.44963941986918 0.34658393008240 
H1    H     0.34101342974516 0.29848399998706 0.50104039041581 
H2    H     0.45140317018679 0.35904833999287 0.61419180965180 
H3    H     0.43663108006529 0.46218240992753 0.60486025997478 
H4    H     0.31143008998595 0.50498474983597 0.48234428033246 
H5    H     0.20359064979152 0.28832331016088 0.36231171979279 
H6    H     0.07909177992375 0.33122926980393 0.23854600945834 
H7    H     0.06475196997243 0.43427664016107 0.22755235986789 
H8    H     0.17543366004769 0.49476506017955 0.34169345061391 
