data_stdin
_audit_creation_method 'critic2'
_audit_creation_date 2023-8-11
_chemical_formula_sum 'C10 H8'
_cell_formula_units_Z 4
_cell_length_a         5.9313295100
_cell_length_b        14.9896035500
_cell_length_c         8.2016603500
_cell_angle_alpha        90.0000
_cell_angle_beta        90.0000
_cell_angle_gamma        89.9999
_cell_volume           729.195497
_space_group_crystal_system triclinic
_space_group_IT_number 1
_space_group_name_H-M_alt 'P 1'
_space_group_name_Hall 'P 1'
loop_
_symmetry_equiv_pos_site_id
_symmetry_equiv_pos_as_xyz
 1 'x,y,z'
loop_
_atom_site_label
_atom_site_type_symbol
_atom_site_fract_x
_atom_site_fract_y
_atom_site_fract_z
C1    C     0.24206565977075 0.22365032974774 0.01241781976499 
C2    C     0.75793434022924 0.77634966993527 0.51241782037463 
C3    C     0.25792887051783 0.22365200970362 0.51242575047624 
C4    C     0.74207112948216 0.77634798997940 0.01242574986661 
C5    C     0.28577445021990 0.13682305022133 0.05829603026660 
C6    C     0.71422554978010 0.86317695019001 0.55829602965697 
C7    C     0.21422534992599 0.13682382993049 0.55829943018794 
C8    C     0.78577466018979 0.86317616981372 0.05829942957830 
C9    C     0.48567722942138 0.09365926031061 0.00640844996709 
C10   C     0.51432277057862 0.90634074003151 0.50640845057672 
C11   C     0.01433015027132 0.09365833989191 0.50640326016427 
C12   C     0.98566984972868 0.90634165978307 0.00640325955463 
C13   C     0.64053045944710 0.13843447967447 0.91105555962214 
C14   C     0.35946954055290 0.86156551987329 0.41105556998590 
C15   C     0.85947883987050 0.13843277029530 0.41104672055823 
C16   C     0.14052116012950 0.86156722991957 0.91104671994860 
C17   C     0.60196488017113 0.22832880976199 0.86381051002679 
C18   C     0.39803511982887 0.77167118972273 0.36381050941716 
C19   C     0.89803885937346 0.22832795032941 0.36380625052341 
C20   C     0.10196114062654 0.77167204982243 0.86380624991378 
C21   C     0.39803476999518 0.27167247998496 0.91499867950518 
C22   C     0.60196523000482 0.72832752023519 0.41499868011481 
C23   C     0.10196147023580 0.27167334008371 0.41500294022783 
C24   C     0.89803852976420 0.72832666013645 0.91500293961820 
C25   C     0.35946909967723 0.36156681007260 0.86775336045219 
C26   C     0.64053090032277 0.63843319008451 0.36775335984256 
C27   C     0.14052158078074 0.36156852011769 0.36776219951610 
C28   C     0.85947841921926 0.63843148003943 0.86776220012573 
C29   C     0.51432161991201 0.40634178993813 0.77239958979769 
C30   C     0.48567838008799 0.59365821009175 0.27239959040733 
C31   C     0.98567098016953 0.40634270968651 0.27240477960051 
C32   C     0.01432901983050 0.59365729968319 0.77240478021014 
C33   C     0.71422388995200 0.36317771983392 0.72051131939401 
C34   C     0.28577611004800 0.63682228012674 0.22051132000364 
C35   C     0.78577629979059 0.36317694012013 0.22050793044606 
C36   C     0.21422370020941 0.63682305984052 0.72050792983643 
C37   C     0.75793388923744 0.27635082990919 0.76639099057546 
C38   C     0.24206611076256 0.72364917011268 0.26639098996583 
C39   C     0.74207156024882 0.27634914995207 0.26638305986421 
C40   C     0.25792843975118 0.72365085006979 0.76638306047385 
H1    H     0.08786662078296 0.25661539029275 0.05159060018866 
H2    H     0.91213337921704 0.74338461010965 0.55159059957902 
H3    H     0.41212208944414 0.25661838007398 0.55160506981980 
H4    H     0.58787791055586 0.74338162032844 0.05160507042943 
H5    H     0.16711798931552 0.10211845008373 0.13733403017598 
H6    H     0.83288201068445 0.89788153975901 0.63733402956634 
H7    H     0.33288096005629 0.10211966986100 0.63733935044018 
H8    H     0.66711903994371 0.89788032998868 0.13733934983055 
H9    H     0.51735537079091 0.02491930988821 0.04266554027685 
H10   H     0.48264462077928 0.97508068983516 0.54266553966722 
H11   H     0.98265616976360 0.02491767967052 0.54265660001392 
H12   H     0.01734383023640 0.97508232005283 0.04265659940429 
H13   H     0.79523530004344 0.10583637008662 0.87108812059012 
H14   H     0.20476469995656 0.89416363007494 0.37108811998049 
H15   H     0.70477966962479 0.10583344970039 0.37107263043391 
H16   H     0.29522033037521 0.89416654979403 0.87107262982428 
H17   H     0.20476962044544 0.39416612982504 0.90772841989244 
H18   H     0.79523037955456 0.60583386971828 0.40772842050208 
H19   H     0.29521540990010 0.39416904021813 0.40774390029453 
H20   H     0.70478459009990 0.60583095999234 0.90774389968490 
H21   H     0.48265082934500 0.47508368970133 0.73615132940734 
H22   H     0.51734917065500 0.52491631028020 0.23615133001698 
H23   H     0.01733760988549 0.47508531993642 0.23616027942440 
H24   H     0.98266239011451 0.52491468004512 0.73616028003403 
H25   H     0.83288553013708 0.39788357016411 0.64147921950950 
H26   H     0.16711446986292 0.60211642969109 0.14147922011913 
H27   H     0.66711550027074 0.39788235973654 0.14147391021868 
H28   H     0.33288449972926 0.60211764011866 0.64147390960905 
H29   H     0.91213349976602 0.24338556989179 0.72721986957190 
H30   H     0.08786650023398 0.75661443007782 0.22721987018153 
H31   H     0.58787776978063 0.24338258011093 0.22720540969488 
H32   H     0.41212223021937 0.75661741985866 0.72720541030451 
