data_stdin
_audit_creation_method 'critic2'
_audit_creation_date 2023-8-11
_chemical_formula_sum 'C10 H8'
_cell_formula_units_Z 4
_cell_length_a        21.2370403430
_cell_length_b         4.6741229813
_cell_length_c         7.6563878681
_cell_angle_alpha        90.0013
_cell_angle_beta        85.2774
_cell_angle_gamma        90.0036
_cell_volume           757.427551
_space_group_crystal_system monoclinic
_space_group_IT_number 5
_space_group_name_H-M_alt 'C2'
_space_group_name_Hall 'C 2y'
loop_
_symmetry_equiv_pos_site_id
_symmetry_equiv_pos_as_xyz
 1 'x,y,z'
 2 '-x,y,-z'
 3 '-1/2+x,-1/2+y,z'
 4 '-1/2-x,-1/2+y,-z'
loop_
_atom_site_label
_atom_site_type_symbol
_atom_site_fract_x
_atom_site_fract_y
_atom_site_fract_z
C1    C     0.07130166992599 0.55995722053787 0.25693004021476 
C2    C     0.08741596998559 0.62719265030297 0.08373089002145 
C3    C     0.13936717977995 0.49102036934006 0.99047892055320 
C4    C     0.17445728977798 0.29018558941873 0.07212692002115 
C5    C     0.15898624013377 0.21558795901286 0.25022577947508 
C6    C     0.10600109008943 0.35222497041762 0.34445725973648 
C7    C     0.09060199980884 0.27685396081256 0.52246108054104 
C8    C     0.12582260010531 0.07653000054615 0.60398289060108 
C9    C     0.17801396004446 0.94200095932147 0.51111261017077 
C10   C     0.19399946994527 0.00949993010112 0.33791761947035 
H1    H     0.03258218011769 0.67220392059889 0.32994400966387 
H2    H     0.06083263010097 0.78959025906561 0.01907554981893 
H3    H     0.15149880020337 0.54517872002343 0.85350497004658 
H4    H     0.21452834011861 0.18424354093109 0.00097605993698 
H5    H     0.05063107019330 0.38040592943155 0.59502769005085 
H6    H     0.11361991988983 0.02308363986163 0.74102689981135 
H7    H     0.20557781005765 0.78337721068692 0.57556919997495 
H8    H     0.23344714981353 0.90126756893679 0.26564472985536 
