data_stdin
_audit_creation_method 'critic2'
_audit_creation_date 2023-8-11
_chemical_formula_sum 'C10 H8'
_cell_formula_units_Z 8
_cell_length_a        21.4954785766
_cell_length_b         5.2029390186
_cell_length_c        15.5561153901
_cell_angle_alpha        90.0027
_cell_angle_beta        63.4657
_cell_angle_gamma        89.9873
_cell_volume          1556.533793
_space_group_crystal_system monoclinic
_space_group_IT_number 15
_space_group_name_H-M_alt 'C2/c'
_space_group_name_Hall '-C 2yc'
loop_
_symmetry_equiv_pos_site_id
_symmetry_equiv_pos_as_xyz
 1 'x,y,z'
 2 '-1/2-x,-1/2-y,-z'
 3 '-x,y,-1/2-z'
 4 'x,-y,-1/2+z'
 5 '-1/2+x,-1/2+y,z'
 6 '-x,-y,-z'
 7 '-1/2-x,-1/2+y,-1/2-z'
 8 '-1/2+x,-1/2-y,-1/2+z'
loop_
_atom_site_label
_atom_site_type_symbol
_atom_site_fract_x
_atom_site_fract_y
_atom_site_fract_z
C1    C     0.33509659015883 0.82839626917864 0.45605342014976 
C2    C     0.37028997991374 0.64736691994891 0.38630388983442 
C3    C     0.41348082983781 0.46393360024946 0.40056717990986 
C4    C     0.42085572021922 0.46463937991879 0.48419253971302 
C5    C     0.38613429003829 0.65090032974124 0.55670656024577 
C6    C     0.34196515988748 0.83587437048612 0.54263979024487 
C7    C     0.30679780015045 0.02039979084105 0.61562515967875 
C8    C     0.31540182012271 0.02503694930296 0.69832250025223 
C9    C     0.35953854014619 0.84426265035182 0.71166257014435 
C10   C     0.39373891017016 0.66015665908162 0.64273979011707 
H1    H     0.30099126020883 0.96763390077610 0.44609941970033 
H2    H     0.36442466991143 0.64367339093997 0.32032624999095 
H3    H     0.44051505992394 0.31953892009916 0.34569462015340 
H4    H     0.45315404006612 0.32101263968937 0.49590541983635 
H5    H     0.27310104984361 0.16031195074944 0.60510330001592 
H6    H     0.28782267976510 0.16794018923390 0.75346118011355 
H7    H     0.36614746002662 0.85077404011895 0.77707436987493 
H8    H     0.42728002987275 0.51878595035836 0.65293332013908 
