data_stdin
_audit_creation_method 'critic2'
_audit_creation_date 2023-8-11
_chemical_formula_sum 'C10 H8'
_cell_formula_units_Z 4
_cell_length_a         4.7866112003
_cell_length_b        21.4371671812
_cell_length_c         6.9342391300
_cell_angle_alpha        90.0006
_cell_angle_beta        89.9999
_cell_angle_gamma        90.0005
_cell_volume           711.531878
_space_group_crystal_system orthorhombic
_space_group_IT_number 19
_space_group_name_H-M_alt 'P2_12_12_1'
_space_group_name_Hall 'P 2ac 2ab'
loop_
_symmetry_equiv_pos_site_id
_symmetry_equiv_pos_as_xyz
 1 'x,y,z'
 2 '-x,-1/2+y,-1/2-z'
 3 '-1/2+x,-1/2-y,-z'
 4 '-1/2-x,-y,-1/2+z'
loop_
_atom_site_label
_atom_site_type_symbol
_atom_site_fract_x
_atom_site_fract_y
_atom_site_fract_z
C1    C     0.55790388020249 0.61696582003129 0.97416389040301 
C2    C     0.36725130966580 0.66499637981499 0.98799599958902 
C3    C     0.31381475061093 0.70390554006869 0.82728679953019 
C4    C     0.45295589934264 0.69435724000532 0.65573093008876 
C5    C     0.65061757101392 0.64536748009279 0.63676047028292 
C6    C     0.70343563012631 0.60569750000191 0.79932613997619 
C7    C     0.90072381084661 0.55665170983570 0.78039056955085 
C8    C     0.04161350002570 0.54738529999217 0.60941694060592 
C9    C     0.98842850970300 0.58626954014099 0.44870587049457 
C10   C     0.79689148912724 0.63410946980469 0.46219440011982 
H1    H     0.60031780011699 0.58691746991097 0.09740423931283 
H2    H     0.25481937079447 0.67326135979418 0.12229048939303 
H3    H     0.16047876972760 0.74112430987823 0.84108895004870 
H4    H     0.41050001916715 0.72400261994847 0.53137292938060 
H5    H     0.93751102901940 0.52622078989519 0.90363577070379 
H6    H     0.19485480049592 0.51010384020097 0.59717484986378 
H7    H     0.10042996964085 0.57835440001071 0.31416893990087 
H8    H     0.75614036063648 0.66403318994664 0.33841295934536 
