data_stdin
_audit_creation_method 'critic2'
_audit_creation_date 2023-8-11
_chemical_formula_sum 'C10 H8'
_cell_formula_units_Z 4
_cell_length_a         9.8185040215
_cell_length_b        10.7094836901
_cell_length_c         7.0831715767
_cell_angle_alpha        90.0011
_cell_angle_beta        89.9030
_cell_angle_gamma        90.0000
_cell_volume           744.802277
_space_group_crystal_system monoclinic
_space_group_IT_number 14
_space_group_name_H-M_alt 'P2_1/c'
_space_group_name_Hall '-P 2ybc'
loop_
_symmetry_equiv_pos_site_id
_symmetry_equiv_pos_as_xyz
 1 'x,y,z'
 2 '-1/2-x,-y,-1/2-z'
 3 '-1/2-x,-1/2+y,-z'
 4 '-1/2+x,-1/2-y,z'
 5 '-1/2+x,y,-1/2+z'
 6 '-x,-y,-z'
 7 '-x,-1/2+y,-1/2-z'
 8 'x,-1/2-y,-1/2+z'
loop_
_atom_site_label
_atom_site_type_symbol
_atom_site_fract_x
_atom_site_fract_y
_atom_site_fract_z
C1    C     0.89317907978443 0.91119212036563 0.63662975032799 
C2    C     0.82212056046105 0.82726202045901 0.52665569955488 
C3    C     0.67793260038993 0.82735201990422 0.52679716974632 
C4    C     0.60684212970187 0.91137896954559 0.63689880935371 
C5    C     0.67683848997303 0.00002750045905 0.75008601954772 
H1    H     0.00416885005010 0.91097986022011 0.63780992053978 
H2    H     0.87584055039234 0.76014857985970 0.43836437029030 
H3    H     0.62423752959883 0.76028341036597 0.43865052053049 
H4    H     0.49584928982307 0.91130456001494 0.63831108004862 
