data_stdin
_audit_creation_method 'critic2'
_audit_creation_date 2023-8-11
_chemical_formula_sum 'C10 H8'
_cell_formula_units_Z 4
_cell_length_a        18.8713107164
_cell_length_b         5.9333751074
_cell_length_c         6.4930935019
_cell_angle_alpha        89.9998
_cell_angle_beta        90.0127
_cell_angle_gamma        89.9942
_cell_volume           727.035328
_space_group_crystal_system monoclinic
_space_group_IT_number 4
_space_group_name_H-M_alt 'P2_1'
_space_group_name_Hall 'P 2yb'
loop_
_symmetry_equiv_pos_site_id
_symmetry_equiv_pos_as_xyz
 1 'x,y,z'
 2 '-x,-y,-1/2+z'
loop_
_atom_site_label
_atom_site_type_symbol
_atom_site_fract_x
_atom_site_fract_y
_atom_site_fract_z
C1    C     0.87354093004094 0.62495790995117 0.99347457059775 
C2    C     0.62631708996720 0.12495104967023 0.49337054046960 
C3    C     0.92069595001073 0.56801226955919 0.14704370972104 
C4    C     0.57925679007742 0.06781377934421 0.64705470940641 
C5    C     0.95592522992481 0.35747835942116 0.14303746982885 
C6    C     0.54403732023674 0.85728413005786 0.64294695985830 
C7    C     0.94305767013879 0.20660843081479 0.98580124026852 
C8    C     0.55683916024564 0.70658631983042 0.48553867955120 
C9    C     0.89528239991332 0.26077323029109 0.82392857046103 
C10   C     0.60455125001698 0.76089556996489 0.32362167049468 
C11   C     0.86004926995173 0.47528751959896 0.82727279072695 
C12   C     0.63975016018672 0.97544006991839 0.32701994964162 
C13   C     0.81410716016381 0.53224422061717 0.66194977055627 
C14   C     0.68569691023181 0.03241070039879 0.16178604069170 
C15   C     0.80277751991103 0.38432264012238 0.50167227999254 
C16   C     0.69709262017029 0.88443057036958 0.00160861924141 
C17   C     0.83631328016887 0.17096983072690 0.50025075000836 
C18   C     0.66358245002025 0.67105956016337 0.00012427059674 
C19   C     0.88173803976811 0.11131355069244 0.65755512992980 
C20   C     0.61812602001143 0.61144112930458 0.15728737926184 
H1    H     0.84601812991469 0.78618215994653 0.99777766065907 
H2    H     0.65382374018077 0.28618389974559 0.49773915046801 
H3    H     0.93091282016302 0.68361371023423 0.27366626950605 
H4    H     0.56912322021104 0.18321647979996 0.77387966985870 
H5    H     0.99273298983985 0.31631562997095 0.26655002053251 
H6    H     0.50726817984761 0.81603313970559 0.76647879040950 
H7    H     0.96960062989163 0.04336540064773 0.98325236033633 
H8    H     0.53031281973661 0.54333586043907 0.48291860987043 
H9    H     0.78871756023694 0.69706632065549 0.66107797966118 
H10   H     0.71106233987742 0.19725210043759 0.16096240977024 
H11   H     0.76888489993745 0.43432250038705 0.37389476960790 
H12   H     0.73105544023237 0.93433989000085 0.87401223021413 
H13   H     0.82676479993241 0.05537926985607 0.37295311034013 
H14   H     0.67318120002145 0.55542438947388 0.87290324074707 
H15   H     0.90824289008960 0.94817072993428 0.65527701068709 
H16   H     0.59164392005339 0.44828260058626 0.15497074948090 
