data_stdin
_audit_creation_method 'critic2'
_audit_creation_date 2023-8-11
_chemical_formula_sum 'C10 H8'
_cell_formula_units_Z 8
_cell_length_a        14.2450194770
_cell_length_b        14.2448246870
_cell_length_c         7.5441809517
_cell_angle_alpha        89.9995
_cell_angle_beta        90.0012
_cell_angle_gamma        90.0119
_cell_volume          1530.848607
_space_group_crystal_system monoclinic
_space_group_IT_number 13
_space_group_name_H-M_alt 'P2/c'
_space_group_name_Hall '-P 2yc'
loop_
_symmetry_equiv_pos_site_id
_symmetry_equiv_pos_as_xyz
 1 'x,y,z'
 2 '-x,-y,-z'
 3 '-1/2-x,-1/2-y,z'
 4 '-1/2+x,-1/2+y,-z'
loop_
_atom_site_label
_atom_site_type_symbol
_atom_site_fract_x
_atom_site_fract_y
_atom_site_fract_z
C1    C     0.55653338983101 0.70192577012969 0.24496278035758 
C2    C     0.79808402965182 0.55649039012937 0.24500069000694 
C3    C     0.49225854007201 0.71290904967014 0.10988547002745 
C4    C     0.78709374004397 0.49221879013656 0.10990996979655 
C5    C     0.39806883966336 0.68371783029055 0.13357641018326 
C6    C     0.81627332967103 0.39803520009186 0.13358138941490 
C7    C     0.36935835033220 0.64529041975376 0.29243347994496 
C8    C     0.85469780001461 0.36932757020692 0.29243141025422 
C9    C     0.43409996967332 0.63289249976740 0.43373410051717 
C10   C     0.86710550983942 0.43406650013092 0.43374358009406 
C11   C     0.52989295965404 0.66135621004479 0.40935358964837 
C12   C     0.83865188994025 0.52985325986736 0.40938460952801 
C13   C     0.59477366007892 0.64643137966145 0.54932928055286 
C14   C     0.85358494989241 0.59473166980577 0.54937295028289 
C15   C     0.56682006000767 0.60511981977068 0.70583284027714 
C16   C     0.89489542018396 0.56678180996843 0.70586767975640 
C17   C     0.47239503013967 0.57685075991965 0.72953504992887 
C18   C     0.92315643007504 0.47236363992890 0.72954744957099 
C19   C     0.40751832983896 0.59074807972762 0.59664345044468 
C20   C     0.90925111033266 0.40748910986474 0.59664316056124 
H1    H     0.62908913003521 0.72419556974269 0.22654759993809 
H2    H     0.77582114032335 0.62904073033331 0.22660162008141 
H3    H     0.51353023982213 0.74341659028891 0.98379582022863 
H4    H     0.75658766965914 0.51348810973997 0.98382588953390 
H5    H     0.34870394994218 0.69091297014826 0.02429576003805 
H6    H     0.80907286011175 0.34867329975469 0.02429067058355 
H7    H     0.29674300032759 0.62321080986300 0.31163334959683 
H8    H     0.87676893014400 0.29671699012365 0.31161593947235 
H9    H     0.66807584005309 0.66552273999262 0.52980042010745 
H10   H     0.83450078025327 0.66802980031410 0.52986212958707 
H11   H     0.61769500991434 0.59274016025028 0.81106999044640 
H12   H     0.90728143007658 0.61765509007345 0.81111526002908 
H13   H     0.45125210987027 0.54299067992653 0.85257634053637 
H14   H     0.95701714972251 0.45122476994541 0.85258090955792 
H15   H     0.33525032970814 0.56779338990828 0.61381749945803 
H16   H     0.93219936997117 0.33522670006318 0.61379963967629 
