data_stdin
_audit_creation_method 'critic2'
_audit_creation_date 2023-8-11
_chemical_formula_sum 'C10 H8'
_cell_formula_units_Z 4
_cell_length_a         5.8777249925
_cell_length_b         6.9559028507
_cell_length_c        18.2676270257
_cell_angle_alpha        89.9988
_cell_angle_beta        76.4948
_cell_angle_gamma        90.0008
_cell_volume           726.218020
_space_group_crystal_system monoclinic
_space_group_IT_number 14
_space_group_name_H-M_alt 'P2_1/c'
_space_group_name_Hall '-P 2ybc'
loop_
_symmetry_equiv_pos_site_id
_symmetry_equiv_pos_as_xyz
 1 'x,y,z'
 2 '-x,-y,-z'
 3 '-x,-1/2+y,-1/2-z'
 4 'x,-1/2-y,-1/2+z'
loop_
_atom_site_label
_atom_site_type_symbol
_atom_site_fract_x
_atom_site_fract_y
_atom_site_fract_z
C1    C     0.76312986575115 0.28438100529194 0.19283456336286 
C2    C     0.90700104295407 0.13378939451100 0.20169969498396 
C3    C     0.14635607024162 0.13530083728171 0.16374511195634 
C4    C     0.23772799315000 0.28710729934955 0.11765840069308 
C5    C     0.09471833585835 0.44505795343434 0.10778721525050 
C6    C     0.85204472640152 0.44348978233469 0.14609554316804 
C7    C     0.70907663984625 0.60124838159903 0.13605228615651 
C8    C     0.80083891447710 0.75369593624196 0.09041099352773 
C9    C     0.04037883224937 0.75551839287886 0.05294031479862 
C10   C     0.18372018885350 0.60476191072588 0.06159581919118 
H1    H     0.57828299166719 0.28333886329703 0.22151487275414 
H2    H     0.83868170836367 0.01196247633638 0.23753379333471 
H3    H     0.25689648755319 0.01484447414137 0.17126087554835 
H4    H     0.42225123921717 0.28853162098847 0.08873884753167 
H5    H     0.52433121117498 0.59928448015141 0.16454435158909 
H6    H     0.68894781546132 0.87379861019246 0.08333287183853 
H7    H     0.11141275650142 0.87676817107999 0.01722762411699 
H8    H     0.36837586361185 0.60642072067508 0.03312098449603 
