data_stdin
_audit_creation_method 'critic2'
_audit_creation_date 2023-8-11
_chemical_formula_sum 'C10 H8'
_cell_formula_units_Z 4
_cell_length_a         5.8567887007
_cell_length_b        28.1785655429
_cell_length_c         4.6111237946
_cell_angle_alpha        90.0128
_cell_angle_beta        89.9996
_cell_angle_gamma        89.9998
_cell_volume           761.000966
_space_group_crystal_system orthorhombic
_space_group_IT_number 32
_space_group_name_H-M_alt 'Pba2'
_space_group_name_Hall 'P 2 -2ab'
loop_
_symmetry_equiv_pos_site_id
_symmetry_equiv_pos_as_xyz
 1 'x,y,z'
 2 '-x,-y,z'
 3 '-1/2-x,-1/2+y,z'
 4 '-1/2+x,-1/2-y,z'
loop_
_atom_site_label
_atom_site_type_symbol
_atom_site_fract_x
_atom_site_fract_y
_atom_site_fract_z
C1    C     0.01047309015912 0.88448115017393 0.96965892104309 
C2    C     0.05899855934032 0.92814178994338 0.85005553055581 
C3    C     0.26144247004467 0.95248974999487 0.92725691927191 
C4    C     0.41221559081574 0.93270302006855 0.12238974102787 
C5    C     0.36766039918538 0.88763701990667 0.24763788052851 
C6    C     0.16254944084005 0.86295406997818 0.16959755001763 
C7    C     0.11874316042126 0.81777376016308 0.29393495990352 
C8    C     0.26917924960284 0.79815922010756 0.49024702944713 
C9    C     0.47026764933406 0.82279690985183 0.56976025077202 
C10   C     0.51912726936130 0.86635450995413 0.44912064088433 
H1    H     0.85465976080514 0.86566439989432 0.91198126919160 
H2    H     0.94307520013433 0.94393803003933 0.69257171014031 
H3    H     0.29774898916452 0.98684259990631 0.82955869996011 
H4    H     0.56871682965490 0.95122468015007 0.18232733051889 
H5    H     0.96323900960429 0.79893459986890 0.23348165986229 
H6    H     0.23292611014926 0.76372222013556 0.58659859043390 
H7    H     0.58489296985024 0.80742164016236 0.73034909970383 
H8    H     0.67438443039222 0.88529698991543 0.50766890090552 
