data_stdin
_audit_creation_method 'critic2'
_audit_creation_date 2023-8-11
_chemical_formula_sum 'C10 H8'
_cell_formula_units_Z 8
_cell_length_a        15.6276376170
_cell_length_b         5.9305899726
_cell_length_c        17.0800751445
_cell_angle_alpha        90.0002
_cell_angle_beta        68.0733
_cell_angle_gamma        89.9980
_cell_volume          1468.489669
_space_group_crystal_system monoclinic
_space_group_IT_number 15
_space_group_name_H-M_alt 'C2/c'
_space_group_name_Hall '-C 2yc'
loop_
_symmetry_equiv_pos_site_id
_symmetry_equiv_pos_as_xyz
 1 'x,y,z'
 2 '-x,-y,-z'
 3 '-x,y,-1/2-z'
 4 'x,-y,-1/2+z'
 5 '-1/2+x,-1/2+y,z'
 6 '-1/2-x,-1/2-y,-z'
 7 '-1/2-x,-1/2+y,-1/2-z'
 8 '-1/2+x,-1/2-y,-1/2+z'
loop_
_atom_site_label
_atom_site_type_symbol
_atom_site_fract_x
_atom_site_fract_y
_atom_site_fract_z
C1    C     0.13750196003141 0.19621781007717 0.42308753023740 
C2    C     0.05271487008521 0.25452836977414 0.42166180991335 
C3    C     0.04068497978761 0.46285771053137 0.38663125000426 
C4    C     0.11360407004445 0.61020244982619 0.35359936021818 
C5    C     0.20185245020057 0.55545757037041 0.35428344982821 
C6    C     0.21418047989692 0.34370023987817 0.38949696985821 
C7    C     0.30290010007340 0.28727759046157 0.38845053984784 
C8    C     0.37639676009185 0.43252191061936 0.35370833994711 
C9    C     0.36410605996699 0.64121366934696 0.31909621030725 
C10   C     0.27868226996706 0.70166603073652 0.31962945982070 
H1    H     0.14722908967253 0.03569219965473 0.44968834007340 
H2    H     0.99421428975372 0.14081363919197 0.44766419992782 
H3    H     0.97301042016943 0.50621394001868 0.38662005011339 
H4    H     0.10536493981376 0.77007706999259 0.32569484019434 
H5    H     0.31161063987870 0.12678418925412 0.41563766984359 
H6    H     0.44437892017897 0.38745469976961 0.35263589001635 
H7    H     0.42240084983438 0.75468169025281 0.29146388970792 
H8    H     0.26946232975099 0.86173152955558 0.29265605990857 
