data_stdin
_audit_creation_method 'critic2'
_audit_creation_date 2023-8-11
_chemical_formula_sum 'C10 H8'
_cell_formula_units_Z 8
_cell_length_a        19.3402275510
_cell_length_b        19.3397324206
_cell_length_c         3.9908406042
_cell_angle_alpha        89.9975
_cell_angle_beta        90.0006
_cell_angle_gamma        90.0009
_cell_volume          1492.713368
_space_group_crystal_system tetragonal
_space_group_IT_number 86
_space_group_name_H-M_alt 'P4_2/n'
_space_group_name_Hall 'P 4n -1n'
loop_
_symmetry_equiv_pos_site_id
_symmetry_equiv_pos_as_xyz
 1 'x,y,z'
 2 '-y,-1/2+x,-1/2+z'
 3 '-1/2-x,-1/2-y,z'
 4 '-1/2+y,-x,-1/2+z'
 5 '-x,-y,-z'
 6 'y,-1/2-x,-1/2-z'
 7 '-1/2+x,-1/2+y,-z'
 8 '-1/2-y,x,-1/2-z'
loop_
_atom_site_label
_atom_site_type_symbol
_atom_site_fract_x
_atom_site_fract_y
_atom_site_fract_z
C1    C     0.28310615022487 0.57642341984161 0.56375514972423 
C2    C     0.33144321995041 0.62664557020431 0.63602424088035 
C3    C     0.40162354988211 0.61663611998131 0.54832848046506 
C4    C     0.42217614982485 0.55697797009003 0.38759965942911 
C5    C     0.37356885985657 0.50472716010381 0.30563516053837 
C6    C     0.30251625990655 0.51457546016192 0.39699907960799 
C7    C     0.25403309996748 0.46206370017917 0.31707585067038 
C8    C     0.27410994997606 0.40329769988448 0.14725516900805 
C9    C     0.34402919016172 0.39401036007499 0.05356768887959 
C10   C     0.39269771018975 0.44335107005927 0.13446025887608 
H1    H     0.22925767025418 0.58355199987460 0.63604019997095 
H2    H     0.31603543978566 0.67376531994280 0.76561739960208 
H3    H     0.43945256023230 0.65635858977814 0.60893645092519 
H4    H     0.47629410984549 0.54907063980277 0.32224273021326 
H5    H     0.20032401018102 0.46885215024417 0.39272896106769 
H6    H     0.23600254976265 0.36385213986691 0.08498247883444 
H7    H     0.35913111002715 0.34801659981624 0.91441656008242 
H8    H     0.44675815004613 0.43615641975093 0.06581715882645 
