data_stdin
_audit_creation_method 'critic2'
_audit_creation_date 2023-8-11
_chemical_formula_sum 'C10 H8'
_cell_formula_units_Z 4
_cell_length_a         8.0039760083
_cell_length_b         5.9839110998
_cell_length_c        15.3847999812
_cell_angle_alpha        90.0092
_cell_angle_beta        83.3607
_cell_angle_gamma        90.0022
_cell_volume           731.914583
_space_group_crystal_system monoclinic
_space_group_IT_number 14
_space_group_name_H-M_alt 'P2_1/c'
_space_group_name_Hall '-P 2ybc'
loop_
_symmetry_equiv_pos_site_id
_symmetry_equiv_pos_as_xyz
 1 'x,y,z'
 2 '-x,-y,-z'
 3 '-x,-1/2+y,-1/2-z'
 4 'x,-1/2-y,-1/2+z'
loop_
_atom_site_label
_atom_site_type_symbol
_atom_site_fract_x
_atom_site_fract_y
_atom_site_fract_z
C1    C     0.09242628953601 0.71965792492864 0.15240099893574 
C2    C     0.24860864677202 0.65488527927917 0.11321067746980 
C3    C     0.27079547091250 0.44383906899463 0.07197311743155 
C4    C     0.13622844875091 0.30071371127413 0.07069607840400 
C5    C     0.97347324643913 0.36283046629531 0.10961631236862 
C6    C     0.95090327439052 0.57716538919394 0.15125329486852 
C7    C     0.78787601678458 0.63945146950449 0.19023612168046 
C8    C     0.65282259108711 0.49746103910654 0.18708713103957 
C9    C     0.67529418222080 0.28626617795581 0.14593260306682 
C10   C     0.83229070215181 0.22006234174570 0.10860449048991 
H1    H     0.07613606011029 0.88081815188527 0.18511223537077 
H2    H     0.35587996216014 0.76650307140350 0.11438007465974 
H3    H     0.39470854956189 0.39475224586128 0.04126470375177 
H4    H     0.15298617535778 0.13726237869321 0.03982527379417 
H5    H     0.77194053178869 0.80089859452264 0.22301440039791 
H6    H     0.52795458827328 0.54710124078331 0.21631537864302 
H7    H     0.56751535322425 0.17606299144978 0.14380244865661 
H8    H     0.85001182427867 0.05678551680207 0.07769369208569 
