data_stdin
_audit_creation_method 'critic2'
_audit_creation_date 2023-8-11
_chemical_formula_sum 'C10 H8'
_cell_formula_units_Z 8
_cell_length_a        29.6977756423
_cell_length_b         5.9958287217
_cell_length_c         8.1022332900
_cell_angle_alpha        89.9998
_cell_angle_beta        90.0000
_cell_angle_gamma        90.0020
_cell_volume          1442.706152
_space_group_crystal_system orthorhombic
_space_group_IT_number 60
_space_group_name_H-M_alt 'Pbcn'
_space_group_name_Hall '-P 2n 2ab'
loop_
_symmetry_equiv_pos_site_id
_symmetry_equiv_pos_as_xyz
 1 'x,y,z'
 2 '-x,-y,-z'
 3 '-1/2-x,-1/2-y,-1/2+z'
 4 '-1/2+x,-1/2+y,-1/2-z'
 5 '-1/2+x,-1/2-y,-z'
 6 '-1/2-x,-1/2+y,z'
 7 '-x,y,-1/2-z'
 8 'x,-y,-1/2+z'
loop_
_atom_site_label
_atom_site_type_symbol
_atom_site_fract_x
_atom_site_fract_y
_atom_site_fract_z
C1    C     0.60976970542883 0.98506050216940 0.92536995042738 
C2    C     0.56529379218364 0.02245436282519 0.88474080720177 
C3    C     0.54359165225480 0.22152493110482 0.93479385511489 
C4    C     0.56672270258661 0.38031256351326 0.02428383207013 
C5    C     0.61246198365938 0.34643672301911 0.06857861694061 
C6    C     0.63444588456257 0.14454035558677 0.01791964930835 
C7    C     0.68019789627592 0.11047985580437 0.06242394004473 
C8    C     0.70292642415489 0.26706413189104 0.15553812222476 
C9    C     0.68095257092128 0.46457776624846 0.20753695541439 
C10   C     0.63681667023015 0.50444815768555 0.16352365433322 
H1    H     0.62649695460760 0.83221486403360 0.88687025497255 
H2    H     0.54694961856370 0.89904930014633 0.81254594480778 
H3    H     0.50841713900406 0.24779285125685 0.90235535853455 
H4    H     0.55043208449567 0.53446747990361 0.06279498591240 
H5    H     0.69683777943670 0.95773852833805 0.02238167765984 
H6    H     0.73789891537321 0.23863774049174 0.18996344943535 
H7    H     0.69859497874654 0.58434900995322 0.28517785178793 
H8    H     0.61998317174362 0.65666847628921 0.20291842530946 
