data_stdin
_audit_creation_method 'critic2'
_audit_creation_date 2023-8-11
_chemical_formula_sum 'C10 H8'
_cell_formula_units_Z 2
_cell_length_a         9.9921384093
_cell_length_b         6.0454107200
_cell_length_c         5.8458426302
_cell_angle_alpha        90.0000
_cell_angle_beta       102.5622
_cell_angle_gamma        90.0000
_cell_volume           344.673698
_space_group_crystal_system triclinic
_space_group_IT_number 1
_space_group_name_H-M_alt 'P 1'
_space_group_name_Hall 'P 1'
loop_
_symmetry_equiv_pos_site_id
_symmetry_equiv_pos_as_xyz
 1 'x,y,z'
loop_
_atom_site_label
_atom_site_type_symbol
_atom_site_fract_x
_atom_site_fract_y
_atom_site_fract_z
C1    C     0.88893966009826 0.01778531940639 0.66007284021710 
C2    C     0.11106032999818 0.51778533078758 0.33992715926723 
C3    C     0.91184424966887 0.85522990030970 0.82965786967878 
C4    C     0.08815573035833 0.35522989951677 0.17034213913196 
C5    C     0.83497556952704 0.85203929942120 0.00628445950217 
C6    C     0.16502441958561 0.35203928963453 0.99371555985124 
C7    C     0.73664027013751 0.01100175958564 0.01066363066843 
C8    C     0.26335973009892 0.51100174954897 0.98933639000345 
C9    C     0.71092933025117 0.18145030986741 0.83959875967389 
C10   C     0.28907067016060 0.68145030046532 0.16040123921766 
C11   C     0.78907756985086 0.18496803995157 0.66040436031329 
C12   C     0.21092243010513 0.68496804935355 0.33959564021483 
C13   C     0.76336651983352 0.35541678046027 0.48933955019841 
C14   C     0.23663346968094 0.85541679049684 0.51066043919614 
C15   C     0.66503187975668 0.51437902062312 0.49371976014536 
C16   C     0.33496812949968 0.01437903040968 0.50628021994282 
C17   C     0.58815994017255 0.51118478061051 0.67034205951058 
C18   C     0.41184006994470 0.01118477974916 0.32965792945555 
C19   C     0.61106036995235 0.34862375064610 0.83992130957327 
C20   C     0.38893963946572 0.84862373926473 0.16007869914701 
H1    H     0.94710110973115 0.02011660974772 0.52244615926290 
H2    H     0.05289886982746 0.52011662026183 0.47755381919454 
H3    H     0.98842469963234 0.72714254959675 0.82953235069710 
H4    H     0.01157528033651 0.22714255975311 0.17046765032491 
H5    H     0.85403554961074 0.72221033055375 0.13820873039210 
H6    H     0.14596444980482 0.22221032081929 0.86179130042566 
H7    H     0.67816097032654 0.00874179939082 0.14761254040565 
H8    H     0.32183904007788 0.50874178028563 0.85238749076435 
H9    H     0.82181929985999 0.35764524072767 0.35235233945255 
H10   H     0.17818068947740 0.85764525983240 0.64764763933540 
H11   H     0.64596698040292 0.64420360930842 0.36179095023325 
H12   H     0.35403301977878 0.14420363062183 0.63820902013231 
H13   H     0.51157606982944 0.63926832016807 0.67045996923864 
H14   H     0.48842394042813 0.13926831993634 0.32954002049523 
H15   H     0.55289284040021 0.34628584040718 0.97753949079439 
H16   H     0.44710718040752 0.84628582989283 0.02246053016841 
