data_stdin
_audit_creation_method 'critic2'
_audit_creation_date 2023-8-11
_chemical_formula_sum 'C10 H8'
_cell_formula_units_Z 4
_cell_length_a        11.4128378100
_cell_length_b         8.3035673900
_cell_length_c         7.7864445200
_cell_angle_alpha        90.0000
_cell_angle_beta        90.0000
_cell_angle_gamma        90.0000
_cell_volume           737.900074
_space_group_crystal_system orthorhombic
_space_group_IT_number 29
_space_group_name_H-M_alt 'Pca2_1'
_space_group_name_Hall 'P 2c -2ac'
loop_
_symmetry_equiv_pos_site_id
_symmetry_equiv_pos_as_xyz
 1 'x,y,z'
 2 '-x,-y,-1/2+z'
 3 '-1/2-x,y,-1/2+z'
 4 '-1/2+x,-y,z'
loop_
_atom_site_label
_atom_site_type_symbol
_atom_site_fract_x
_atom_site_fract_y
_atom_site_fract_z
C1    C     0.99303092011868 0.68171531054168 0.94433682980078 
C2    C     0.94092907985355 0.55255779991312 0.02561992054188 
C3    C     0.83105648964945 0.57142967011525 0.10796182993548 
C4    C     0.77553915035205 0.71896790043515 0.10867262063339 
C5    C     0.82769796989321 0.85455199963957 0.02806858059401 
C6    C     0.93865904999146 0.83562278966405 0.94353180037934 
C7    C     0.99077059032009 0.97133922962480 0.86311685052164 
C8    C     0.93703165026600 0.12003241038223 0.86853662003101 
C9    C     0.82781780956853 0.13864943024855 0.95252489056907 
C10   C     0.77400318039868 0.00873860034653 0.02983465028520 
H1    H     0.07734977019181 0.66733475024590 0.88058616984435 
H2    H     0.98458526017958 0.43594513037667 0.02717200972576 
H3    H     0.79011869018233 0.46911624970544 0.17182263979780 
H4    H     0.69141038971143 0.73373779947333 0.17269706032009 
H5    H     0.07415159991274 0.95670585939927 0.79705817044658 
H6    H     0.97818463026257 0.22286426009861 0.80606399971665 
H7    H     0.78589297003765 0.25646893982520 0.95507488960473 
H8    H     0.68984810034620 0.02254560964219 0.09392271058908 
