data_stdin
_audit_creation_method 'critic2'
_audit_creation_date 2023-8-11
_chemical_formula_sum 'C10 H8'
_cell_formula_units_Z 4
_cell_length_a        15.5682710274
_cell_length_b         5.8007812330
_cell_length_c         9.1740792721
_cell_angle_alpha        89.9988
_cell_angle_beta        62.7054
_cell_angle_gamma        89.9981
_cell_volume           736.249777
_space_group_crystal_system monoclinic
_space_group_IT_number 5
_space_group_name_H-M_alt 'C2'
_space_group_name_Hall 'C 2y'
loop_
_symmetry_equiv_pos_site_id
_symmetry_equiv_pos_as_xyz
 1 'x,y,z'
 2 '-1/2-x,-1/2+y,-z'
 3 '-1/2+x,-1/2+y,z'
 4 '-x,y,-z'
loop_
_atom_site_label
_atom_site_type_symbol
_atom_site_fract_x
_atom_site_fract_y
_atom_site_fract_z
C1    C     0.30135240981798 0.01140499051081 0.64808459030826 
C2    C     0.21347831995846 0.95615341002855 0.65462937001920 
C3    C     0.16548433960790 0.75008951064824 0.73198043045223 
C4    C     0.20666558958124 0.60044128923305 0.79888950056315 
C5    C     0.29743089979028 0.65188417992262 0.79286366993884 
C6    C     0.34529989004383 0.86312620030237 0.71757682946602 
C7    C     0.43428668988435 0.91773020000100 0.71722867049890 
C8    C     0.47421550974191 0.77133539939256 0.78819811054578 
C9    C     0.42705261019701 0.56281488965649 0.86183253970064 
C10   C     0.34082463013498 0.50386006001833 0.86341428017108 
H1    H     0.33741945983332 0.17200081049688 0.59112986990969 
H2    H     0.18109299970698 0.07120903954537 0.59972914996236 
H3    H     0.09570969017946 0.70987027050335 0.73766603975932 
H4    H     0.17014608007431 0.44156916996830 0.85889431019220 
H5    H     0.47002843031870 0.07899192964706 0.66104535000685 
H6    H     0.54240426983178 0.81498508027350 0.78755137034117 
H7    H     0.45862026986311 0.44862330980354 0.91846728998578 
H8    H     0.30439787000142 0.34399383918916 0.92046133946039 
