data_stdin
_audit_creation_method 'critic2'
_audit_creation_date 2023-8-11
_chemical_formula_sum 'C10 H8'
_cell_formula_units_Z 4
_cell_length_a         8.0453557674
_cell_length_b         7.7483389700
_cell_length_c        11.8797862277
_cell_angle_alpha        90.0000
_cell_angle_beta        77.6845
_cell_angle_gamma        90.0000
_cell_volume           723.521937
_space_group_crystal_system monoclinic
_space_group_IT_number 14
_space_group_name_H-M_alt 'P2_1/c'
_space_group_name_Hall '-P 2ybc'
loop_
_symmetry_equiv_pos_site_id
_symmetry_equiv_pos_as_xyz
 1 'x,y,z'
 2 '-x,-y,-z'
 3 '-x,-1/2+y,-1/2-z'
 4 'x,-1/2-y,-1/2+z'
loop_
_atom_site_label
_atom_site_type_symbol
_atom_site_fract_x
_atom_site_fract_y
_atom_site_fract_z
C1    C     0.90339059979966 0.74682289947720 0.00756630006741 
C2    C     0.74868312037812 0.81616674007843 0.99880751015411 
C3    C     0.73742832036993 0.92870295044144 0.90694054965407 
C4    C     0.88066027956692 0.96990594023353 0.82493888011502 
C5    C     0.04153891031893 0.90032657944407 0.83106955969667 
C6    C     0.05315524030953 0.78598331978074 0.92420979974555 
C7    C     0.21442076950904 0.71676132977003 0.93032548984063 
C8    C     0.35752260038254 0.75740272050578 0.84797632978596 
C9    C     0.34625694986645 0.87165344023491 0.75686992976773 
C10   C     0.19183878964199 0.94217127951295 0.74881611996214 
H1    H     0.91301527987060 0.66342688007271 0.07975479032690 
H2    H     0.63496715028431 0.78706403018036 0.06406992014058 
H3    H     0.61526409026053 0.98472558016060 0.90167305965794 
H4    H     0.87210228064489 0.05887135057451 0.75550733984226 
H5    H     0.22308133036411 0.63160405939103 0.00178518023907 
H6    H     0.48071079982654 0.70407724947354 0.85336782039920 
H7    H     0.46122437936341 0.90512936987328 0.69396186022006 
H8    H     0.18292324029977 0.03311216999499 0.68026032991676 
