data_stdin
_audit_creation_method 'critic2'
_audit_creation_date 2023-8-11
_chemical_formula_sum 'C10 H8'
_cell_formula_units_Z 4
_cell_length_a        12.9486945082
_cell_length_b         5.8258482626
_cell_length_c         9.8124197638
_cell_angle_alpha        90.0008
_cell_angle_beta        85.1748
_cell_angle_gamma        90.0016
_cell_volume           737.597454
_space_group_crystal_system monoclinic
_space_group_IT_number 5
_space_group_name_H-M_alt 'C2'
_space_group_name_Hall 'C 2y'
loop_
_symmetry_equiv_pos_site_id
_symmetry_equiv_pos_as_xyz
 1 'x,y,z'
 2 '-x,y,-z'
 3 '-1/2+x,-1/2+y,-1/2+z'
 4 '-1/2-x,-1/2+y,-1/2-z'
loop_
_atom_site_label
_atom_site_type_symbol
_atom_site_fract_x
_atom_site_fract_y
_atom_site_fract_z
C1    C     0.41655030962367 0.99777041017668 0.36861595024374 
C2    C     0.45086422031535 0.84983684934684 0.26478436952061 
C3    C     0.39719674968796 0.64253326962240 0.24441352011435 
C4    C     0.31008860975622 0.58636560979165 0.32852326958577 
C5    C     0.27213605964370 0.73628998994500 0.43524548998026 
C6    C     0.32679458022736 0.94600850022321 0.45637309049777 
C7    C     0.28851044969781 0.09551729039417 0.56310067023643 
C8    C     0.19940502034934 0.04291779058234 0.64416783967241 
C9    C     0.14424433995415 0.83863822947662 0.62109303029571 
C10   C     0.18005509011114 0.68810111974432 0.51936774037530 
H1    H     0.45722017016035 0.15817521946049 0.38402802956167 
H2    H     0.51962205036576 0.89204660047117 0.19790642003431 
H3    H     0.42370511995992 0.52845110033014 0.16075486971079 
H4    H     0.26846508998420 0.42751878974742 0.31292650960740 
H5    H     0.32992236016043 0.25465038020467 0.57938553982327 
H6    H     0.17180593970893 0.15840403041513 0.72660207038738 
H7    H     0.07341748983177 0.80037444941507 0.68477225003291 
H8    H     0.13844927989490 0.52987844945713 0.50123157020466 
