data_stdin
_audit_creation_method 'critic2'
_audit_creation_date 2023-8-11
_chemical_formula_sum 'C10 H8'
_cell_formula_units_Z 4
_cell_length_a         8.1851425624
_cell_length_b        11.5710224600
_cell_length_c         7.8115756803
_cell_angle_alpha        90.0000
_cell_angle_beta        74.5775
_cell_angle_gamma        89.9999
_cell_volume           713.197183
_space_group_crystal_system monoclinic
_space_group_IT_number 14
_space_group_name_H-M_alt 'P2_1/c'
_space_group_name_Hall '-P 2ybc'
loop_
_symmetry_equiv_pos_site_id
_symmetry_equiv_pos_as_xyz
 1 'x,y,z'
 2 '-x,-y,-z'
 3 '-x,-1/2+y,-1/2-z'
 4 'x,-1/2-y,-1/2+z'
loop_
_atom_site_label
_atom_site_type_symbol
_atom_site_fract_x
_atom_site_fract_y
_atom_site_fract_z
C1    C     0.57838985964100 0.50802636981422 0.72711404050609 
C2    C     0.73536099068799 0.54921632002071 0.63554501950761 
C3    C     0.74890082930605 0.65065003026353 0.53140305049631 
C4    C     0.60549991960324 0.70938496031625 0.52003815011918 
C5    C     0.44202754066570 0.66951001971938 0.61359136977307 
C6    C     0.42829414031139 0.56667649959157 0.71927932007137 
C7    C     0.26476973009380 0.52582744990532 0.81059388952807 
C8    C     0.12103095028135 0.58443439008116 0.79979248981735 
C9    C     0.13475620984859 0.68588643042978 0.69572427974775 
C10   C     0.29164166032441 0.72716122024957 0.60416641039686 
H1    H     0.56756591992253 0.42860360989129 0.80398074955132 
H2    H     0.84932944025369 0.50216519978724 0.64000728966602 
H3    H     0.87372550006716 0.68118315010521 0.45796166037790 
H4    H     0.61564962034120 0.78596640018384 0.43647231058543 
H5    H     0.25550960995514 0.44647922036641 0.88784265992985 
H6    H     0.99617863006780 0.55188883998410 0.86914826020543 
H7    H     0.02056714042635 0.73076915996634 0.68613415019299 
H8    H     0.30141497970733 0.80371729037865 0.52102737019073 
