data_stdin
_audit_creation_method 'critic2'
_audit_creation_date 2023-8-11
_chemical_formula_sum 'C10 H8'
_cell_formula_units_Z 8
_cell_length_a        15.1235593496
_cell_length_b         5.9130212523
_cell_length_c        17.0520151469
_cell_angle_alpha        89.9984
_cell_angle_beta        97.3091
_cell_angle_gamma        89.9992
_cell_volume          1512.501426
_space_group_crystal_system monoclinic
_space_group_IT_number 15
_space_group_name_H-M_alt 'C2/c'
_space_group_name_Hall '-C 2yc'
loop_
_symmetry_equiv_pos_site_id
_symmetry_equiv_pos_as_xyz
 1 'x,y,z'
 2 '-1/2-x,-1/2-y,-z'
 3 '-1/2-x,-1/2+y,-1/2-z'
 4 'x,-y,-1/2+z'
 5 '-1/2+x,-1/2+y,z'
 6 '-x,-y,-z'
 7 '-x,y,-1/2-z'
 8 '-1/2+x,-1/2-y,-1/2+z'
loop_
_atom_site_label
_atom_site_type_symbol
_atom_site_fract_x
_atom_site_fract_y
_atom_site_fract_z
C1    C     0.17469372971144 0.73490727017480 0.57816127012867 
C2    C     0.08423651020734 0.77575547928127 0.57079976975556 
C3    C     0.05117238018384 0.97818086078873 0.60055143987474 
C4    C     0.10921076024232 0.13737582049152 0.63689499974751 
C5    C     0.20274097019409 0.10055460951949 0.64559863981954 
C6    C     0.23612099971274 0.89445968973933 0.61599721991521 
C7    C     0.32949738987704 0.85554345956350 0.62661045983991 
C8    C     0.38731020979479 0.01266089943406 0.66466844982779 
C9    C     0.35433954001936 0.21606616004949 0.69376243977980 
C10   C     0.26393733994614 0.25916306951574 0.68421340995138 
H1    H     0.20014835004455 0.57925130971378 0.55523320975940 
H2    H     0.03754738963106 0.65265111943997 0.54165835973487 
H3    H     0.97954796017511 0.00684309081041 0.59407851975756 
H4    H     0.08467825987261 0.29380334057920 0.66006520008846 
H5    H     0.35430376996671 0.69845814076321 0.60426176978531 
H6    H     0.45882151027190 0.98100060021936 0.67266384982357 
H7    H     0.40030481971973 0.33797600947545 0.72459431973583 
H8    H     0.23829507005350 0.41481572983748 0.70685308003801 
