data_stdin
_audit_creation_method 'critic2'
_audit_creation_date 2023-8-11
_chemical_formula_sum 'C10 H8'
_cell_formula_units_Z 4
_cell_length_a         8.3311973605
_cell_length_b         7.5487810100
_cell_length_c        12.1030656921
_cell_angle_alpha        90.0000
_cell_angle_beta        68.1382
_cell_angle_gamma        90.0000
_cell_volume           706.426734
_space_group_crystal_system monoclinic
_space_group_IT_number 14
_space_group_name_H-M_alt 'P2_1/c'
_space_group_name_Hall '-P 2ybc'
loop_
_symmetry_equiv_pos_site_id
_symmetry_equiv_pos_as_xyz
 1 'x,y,z'
 2 '-x,-y,-z'
 3 '-x,-1/2+y,-1/2-z'
 4 'x,-1/2-y,-1/2+z'
loop_
_atom_site_label
_atom_site_type_symbol
_atom_site_fract_x
_atom_site_fract_y
_atom_site_fract_z
C1    C     0.96218650058013 0.46526457056695 0.29310376981478 
C2    C     0.79141629006987 0.44184314058839 0.36626360996500 
C3    C     0.74792452070631 0.34143943046702 0.47224129964376 
C4    C     0.87606129010908 0.26634169037490 0.50339826042103 
C5    C     0.05303004018405 0.28672958946191 0.42940322021264 
C6    C     0.09699053019873 0.38861665962882 0.32203906005024 
C7    C     0.27393525009986 0.41013032060011 0.24856818021552 
C8    C     0.40221230971495 0.33376876984835 0.27892851959023 
C9    C     0.35860525034394 0.23281044038503 0.38464112974735 
C10   C     0.18799003040372 0.21041286047005 0.45834404024319 
H1    H     0.99555158031591 0.54587512039305 0.21308711987978 
H2    H     0.68977920007781 0.50383126032225 0.34348245976965 
H3    H     0.61274740948260 0.32749211014485 0.53072276026409 
H4    H     0.84395585961615 0.19154829957395 0.58586062993802 
H5    H     0.30598260982188 0.48963331017089 0.16799967020854 
H6    H     0.53763839022809 0.35235723020017 0.22244358019857 
H7    H     0.46103060960323 0.17492821003496 0.40840243984246 
H8    H     0.15427508034543 0.13533122977328 0.54065774030403 
