data_stdin
_audit_creation_method 'critic2'
_audit_creation_date 2023-8-11
_chemical_formula_sum 'C10 H8'
_cell_formula_units_Z 2
_cell_length_a         5.8673676095
_cell_length_b         6.0723849000
_cell_length_c        10.3877684681
_cell_angle_alpha        90.0000
_cell_angle_beta        69.4958
_cell_angle_gamma        90.0000
_cell_volume           346.657532
_space_group_crystal_system triclinic
_space_group_IT_number 1
_space_group_name_H-M_alt 'P 1'
_space_group_name_Hall 'P 1'
loop_
_symmetry_equiv_pos_site_id
_symmetry_equiv_pos_as_xyz
 1 'x,y,z'
loop_
_atom_site_label
_atom_site_type_symbol
_atom_site_fract_x
_atom_site_fract_y
_atom_site_fract_z
C1    C     0.99010709903419 0.92052006932124 0.00076891050907 
C2    C     0.99010721894577 0.07947994931830 0.50076892052513 
C3    C     0.09235682999283 0.07952015063705 0.90276275991659 
C4    C     0.09235698015938 0.92047973062019 0.40276291039075 
C5    C     0.34500447066421 0.07760222076540 0.82678713966809 
C6    C     0.34500463083698 0.92239759020912 0.32678732986773 
C7    C     0.49132842976698 0.91617108984421 0.85013150029054 
C8    C     0.49132858970821 0.08382876994285 0.35013162020195 
C9    C     0.39156676056219 0.74887564997630 0.94954369977222 
C10   C     0.39156689943095 0.25112431919357 0.44954370022845 
C11   C     0.13511718049897 0.75112407923732 0.02681531966000 
C12   C     0.13511729967405 0.24887598969346 0.52681525962684 
C13   C     0.03534633050368 0.58381403061183 0.12621537020165 
C14   C     0.03534641000117 0.41618614934890 0.62621519037096 
C15   C     0.18166565009874 0.42237485013506 0.14955559976695 
C16   C     0.18166573077493 0.57762534076191 0.64955537980139 
C17   C     0.43431636092591 0.42046734944403 0.07358915957246 
C18   C     0.43431646977398 0.57953273988066 0.57358901996292 
C19   C     0.53657426023237 0.57947776936657 0.97559125949942 
C20   C     0.53657441010395 0.42052221057122 0.47559122975892 
H1    H     0.79531305071704 0.92162225007067 0.05861273983913 
H2    H     0.79531315007642 0.07837782974415 0.55861272049490 
H3    H     0.97972735052964 0.20829177937893 0.88322283027424 
H4    H     0.97972751019581 0.79170803071043 0.38322306963252 
H5    H     0.42155062055154 0.20568671975180 0.75048457043349 
H6    H     0.42155079969291 0.79431296032492 0.25048489039022 
H7    H     0.68649974012932 0.91495748993465 0.79265926015875 
H8    H     0.68649991018418 0.08504232019632 0.29265940979307 
H9    H     0.84017570032525 0.58503728076605 0.18368827968792 
H10   H     0.84017576992882 0.41496296037836 0.68368804999098 
H11   H     0.10512406045487 0.29431191928046 0.22587493951000 
H12   H     0.10512413053192 0.70568837945841 0.72587461969457 
H13   H     0.54695587969736 0.29174265942551 0.09316757003605 
H14   H     0.54695597978192 0.70825747965702 0.59316736971167 
H15   H     0.73136855923522 0.57837196071796 0.91774889014943 
H16   H     0.73136872921953 0.42162793004889 0.41774893005745 
