data_stdin
_audit_creation_method 'critic2'
_audit_creation_date 2023-8-11
_chemical_formula_sum 'C10 H8'
_cell_formula_units_Z 8
_cell_length_a        17.6842138400
_cell_length_b        12.0694929101
_cell_length_c         7.3055572801
_cell_angle_alpha        90.0001
_cell_angle_beta        90.0003
_cell_angle_gamma        89.9999
_cell_volume          1559.294446
_space_group_crystal_system orthorhombic
_space_group_IT_number 56
_space_group_name_H-M_alt 'Pccn'
_space_group_name_Hall '-P 2ab 2ac'
loop_
_symmetry_equiv_pos_site_id
_symmetry_equiv_pos_as_xyz
 1 'x,y,z'
 2 '-x,-y,-z'
 3 '-1/2-x,-1/2-y,z'
 4 '-1/2+x,-1/2+y,-z'
 5 '-x,-1/2+y,-1/2-z'
 6 'x,-1/2-y,-1/2+z'
 7 '-1/2+x,-y,-1/2-z'
 8 '-1/2-x,y,-1/2+z'
loop_
_atom_site_label
_atom_site_type_symbol
_atom_site_fract_x
_atom_site_fract_y
_atom_site_fract_z
C1    C     0.51038525953772 0.70940561667435 0.03447262750031 
C2    C     0.58237072046922 0.67674719149369 0.08310838998013 
C3    C     0.59337034807142 0.58342116428420 0.19705884869940 
C4    C     0.53219916182936 0.52380120091449 0.26033725372714 
C5    C     0.45735064422164 0.55602311336759 0.21476956546363 
C6    C     0.44616283583867 0.65060626781657 0.09868274064034 
C7    C     0.37122183333975 0.68175142995213 0.05096625048054 
C8    C     0.31004603827898 0.62324272280844 0.11741323209535 
C9    C     0.32119254732350 0.53088175495473 0.23392222812176 
C10   C     0.39322988288104 0.49753984049635 0.28046642205124 
H1    H     0.50204144770236 0.78019271540314 0.94441464059606 
H2    H     0.63111368941207 0.72216572612522 0.03124009982067 
H3    H     0.65040795780040 0.55721193732556 0.23255327975401 
H4    H     0.54055579590012 0.45077646862099 0.34551995395579 
H5    H     0.36302506776933 0.75232395730270 0.95984360021567 
H6    H     0.25275579217275 0.64758671552288 0.08070289790193 
H7    H     0.27242379867110 0.48603797678989 0.28687725533935 
H8    H     0.40217746798390 0.42553648242231 0.36758630195294 
