data_stdin
_audit_creation_method 'critic2'
_audit_creation_date 2023-8-11
_chemical_formula_sum 'C10 H8'
_cell_formula_units_Z 16
_cell_length_a        16.5592748875
_cell_length_b        45.0717880397
_cell_length_c         3.9456133715
_cell_angle_alpha        90.0195
_cell_angle_beta        89.9962
_cell_angle_gamma        90.0094
_cell_volume          2944.832502
_space_group_crystal_system triclinic
_space_group_IT_number 1
_space_group_name_H-M_alt 'P1'
_space_group_name_Hall 'P 1'
loop_
_symmetry_equiv_pos_site_id
_symmetry_equiv_pos_as_xyz
 1 'x,y,z'
 2 'x,-1/2+y,-1/2+z'
 3 '-1/2+x,y,-1/2+z'
 4 '-1/2+x,-1/2+y,z'
loop_
_atom_site_label
_atom_site_type_symbol
_atom_site_fract_x
_atom_site_fract_y
_atom_site_fract_z
C1    C     0.35013976018380 0.32127120995017 0.48604916034937 
C2    C     0.64978253985752 0.67871363003518 0.48553881996139 
C3    C     0.89987367028726 0.57127370001409 0.73553935906461 
C4    C     0.60022809020991 0.92870603990673 0.73527797926983 
C5    C     0.31027829975051 0.29484306997594 0.54111502045837 
C6    C     0.68964645004655 0.70514890993241 0.54028126025527 
C7    C     0.93970626983470 0.54484342996128 0.79050374104412 
C8    C     0.56038163013807 0.95514432005966 0.78987800068051 
C9    C     0.34966069010698 0.27119898006838 0.70903353893949 
C10   C     0.65029390980863 0.72880784997880 0.70826670936763 
C11   C     0.90030903022928 0.52120005996659 0.95849010082994 
C12   C     0.59974270973890 0.97880293999516 0.95789590974623 
C13   C     0.42850535005226 0.27415926004801 0.81526941126111 
C14   C     0.57147443005531 0.72585385000122 0.81489776122926 
C15   C     0.82147583989323 0.52416449004780 0.06490091092122 
C16   C     0.67854239009143 0.97584529004062 0.06468923879908 
C17   C     0.47150982000078 0.30094499010667 0.75996763963925 
C18   C     0.52846658007098 0.69906126993647 0.75991758954277 
C19   C     0.77849999992056 0.55095259002201 0.00969988073077 
C20   C     0.72152912006343 0.94905073004116 0.00984238027323 
C21   C     0.43121913011464 0.32515174007624 0.59471035941553 
C22   C     0.56872715014131 0.67483982994219 0.59459334994209 
C23   C     0.81880592000820 0.57515793997275 0.84436574041409 
C24   C     0.68126238970741 0.92482990007346 0.84446898106449 
C25   C     0.47391673996381 0.35213297007704 0.54656173044482 
C26   C     0.52602561003512 0.64785315998855 0.54675202941830 
C27   C     0.77613819978891 0.60214134001675 0.79631035958816 
C28   C     0.72394506024283 0.89784123993231 0.79669697911709 
C29   C     0.55265088977973 0.35508438999407 0.65497768006760 
C30   C     0.44731209022652 0.64490962999390 0.65551426093808 
C31   C     0.69741576029352 0.60509742999378 0.90490307925420 
C32   C     0.80264478996344 0.89489870006109 0.90553181982611 
C33   C     0.59260911011392 0.33107207006248 0.81332245014794 
C34   C     0.40738398985713 0.66893632994614 0.81392552937601 
C35   C     0.65744263022177 0.58108641991665 0.06332907945742 
C36   C     0.84258158977604 0.91892547003678 0.06396299023238 
C37   C     0.55289802027166 0.30458172991985 0.86483249115857 
C38   C     0.44710030997273 0.69543220992457 0.86514839040759 
C39   C     0.69712424990954 0.55459381006407 0.11473999975153 
C40   C     0.80288292006773 0.94542141996517 0.11515649070489 
H1    H     0.32019141006349 0.33942278990511 0.35367900097015 
H2    H     0.67970826016626 0.66055031995137 0.35312393079085 
H3    H     0.92983554029733 0.58942388992155 0.60311578887498 
H4    H     0.57028791014501 0.91054521000452 0.60283539024841 
H5    H     0.24850514016100 0.29202163010389 0.45187259022605 
H6    H     0.75139741016702 0.70796526999622 0.45071893876270 
H7    H     0.00146773011999 0.54201844989453 0.70111223941685 
H8    H     0.49862896026457 0.95796615003305 0.70023491039644 
H9    H     0.31745360972575 0.25056123010857 0.75703743086184 
H10   H     0.68250326986615 0.74945209001466 0.75599220069320 
H11   H     0.93249600026995 0.50056046991310 0.00639984106528 
H12   H     0.56756002992559 0.99945085995512 0.00556151088415 
H13   H     0.45855648971760 0.25604278006961 0.94727246023872 
H14   H     0.54144671027781 0.74398190992866 0.94695431999100 
H15   H     0.79141346995374 0.50604868995316 0.19695668011366 
H16   H     0.70857421999142 0.99397279005916 0.19677810004131 
H17   H     0.44355129978197 0.37049808999758 0.42026766115669 
H18   H     0.55636880026905 0.62947711999464 0.42040099108549 
H19   H     0.80651542971821 0.62050520005744 0.66995583088534 
H20   H     0.69359758985466 0.87946553999880 0.67032016055216 
H21   H     0.58462347976533 0.37591199004946 0.61684652981485 
H22   H     0.41533326994639 0.62407831004815 0.61759841947698 
H23   H     0.66546526999694 0.62592688994605 0.86686091007998 
H24   H     0.83460981989034 0.87406733011035 0.86764114072718 
H25   H     0.65484193021195 0.33370128992724 0.89745636879739 
H26   H     0.34516912984766 0.66631458002444 0.89835268974437 
H27   H     0.59522056027236 0.58371934999518 0.14761158074744 
H28   H     0.90479076018280 0.91630465991393 0.14839626944014 
H29   H     0.58292065006602 0.28613076009476 0.99087022895677 
H30   H     0.41709981021311 0.71389466006834 0.99122631123232 
H31   H     0.66708636976257 0.53614485008612 0.24083881899524 
H32   H     0.83289508974374 0.96388215010535 0.24125964993711 
