data_stdin
_audit_creation_method 'critic2'
_audit_creation_date 2023-8-11
_chemical_formula_sum 'C10 H8'
_cell_formula_units_Z 4
_cell_length_a         7.3043122705
_cell_length_b        14.2062624100
_cell_length_c         7.2323573926
_cell_angle_alpha        90.0000
_cell_angle_beta        76.7525
_cell_angle_gamma        90.0000
_cell_volume           730.509161
_space_group_crystal_system monoclinic
_space_group_IT_number 9
_space_group_name_H-M_alt 'Cc'
_space_group_name_Hall 'C -2yc'
loop_
_symmetry_equiv_pos_site_id
_symmetry_equiv_pos_as_xyz
 1 'x,y,z'
 2 'x,-1/2-y,-1/2+z'
 3 '-1/2+x,-1/2+y,-1/2+z'
 4 '-1/2+x,-y,z'
loop_
_atom_site_label
_atom_site_type_symbol
_atom_site_fract_x
_atom_site_fract_y
_atom_site_fract_z
C1    C     0.99929171970831 0.08883422006389 0.99126208985970 
C2    C     0.18738733004984 0.10614126011615 0.91621551010224 
C3    C     0.30272512993922 0.14201365974434 0.03279624956021 
C4    C     0.22784815003845 0.16014355032611 0.22233054050855 
C5    C     0.03448844068913 0.14334442026578 0.30393569966541 
C6    C     0.91783937046846 0.10653114021264 0.18605480054829 
C7    C     0.72519304945906 0.08872452994942 0.26783969029587 
C8    C     0.65024346964361 0.10733553016981 0.45731110003982 
C9    C     0.76461602937516 0.14512043965077 0.57285035012627 
C10   C     0.95285779963091 0.16239386990396 0.49783182030294 
H1    H     0.91065075995255 0.06123220027194 0.90165001974556 
H2    H     0.24717448006578 0.09206177028258 0.76650976972453 
H3    H     0.45133125956072 0.15528547003009 0.97283870944701 
H4    H     0.31633582995051 0.18786317034512 0.31200979029864 
H5    H     0.63719423026545 0.05950740007379 0.17919386049835 
H6    H     0.50246926023628 0.09225593985194 0.51786030954673 
H7    H     0.70418260044166 0.16137116965170 0.72148230062269 
H8    H     0.04062193964742 0.19165311990618 0.58664635987618 
