data_stdin
_audit_creation_method 'critic2'
_audit_creation_date 2023-8-11
_chemical_formula_sum 'C10 H8'
_cell_formula_units_Z 8
_cell_length_a         9.4752685800
_cell_length_b         9.8373148400
_cell_length_c        15.6745815300
_cell_angle_alpha        90.0000
_cell_angle_beta        89.9999
_cell_angle_gamma        90.0000
_cell_volume          1461.046557
_space_group_crystal_system orthorhombic
_space_group_IT_number 61
_space_group_name_H-M_alt 'Pbca'
_space_group_name_Hall '-P 2ac 2ab'
loop_
_symmetry_equiv_pos_site_id
_symmetry_equiv_pos_as_xyz
 1 'x,y,z'
 2 '-x,-y,-z'
 3 '-1/2-x,-y,-1/2+z'
 4 '-1/2+x,y,-1/2-z'
 5 '-1/2+x,-1/2-y,-z'
 6 '-1/2-x,-1/2+y,z'
 7 '-x,-1/2+y,-1/2-z'
 8 'x,-1/2-y,-1/2+z'
loop_
_atom_site_label
_atom_site_type_symbol
_atom_site_fract_x
_atom_site_fract_y
_atom_site_fract_z
C1    C     0.02717505962559 0.74882940033654 0.34484794002692 
C2    C     0.01566878953176 0.73896971011089 0.25730163019386 
C3    C     0.91333131993654 0.65238858040027 0.22037948981812 
C4    C     0.82325854965220 0.57800820965562 0.27133265983135 
C5    C     0.83198556011917 0.58643407981637 0.36155445021982 
C6    C     0.93656975017755 0.67339255037160 0.39924780007108 
C7    C     0.94653384003777 0.68022050992400 0.48959252026416 
C8    C     0.85740625031735 0.60445400992013 0.54031440990102 
C9    C     0.75397240024675 0.51927592970969 0.50303161969456 
C10   C     0.74115683009298 0.51057117962854 0.41559870980849 
H1    H     0.10702427982667 0.81396404993351 0.37360821010910 
H2    H     0.08610039959214 0.79710150978266 0.21633580986831 
H3    H     0.90600349010457 0.64513202004263 0.15125993020192 
H4    H     0.74294860052289 0.51254073043244 0.24321542984934 
H5    H     0.02813544959644 0.74410194966824 0.51790325031864 
H6    H     0.86823755011979 0.60790278024442 0.60943827992969 
H7    H     0.68547672996734 0.45838706977591 0.54359909020158 
H8    H     0.66254324976388 0.44408953951236 0.38675339973593 
