data_stdin
_audit_creation_method 'critic2'
_audit_creation_date 2023-8-11
_chemical_formula_sum 'C10 H8'
_cell_formula_units_Z 4
_cell_length_a         5.8617785000
_cell_length_b        12.2965262212
_cell_length_c        10.1905722900
_cell_angle_alpha        90.0000
_cell_angle_beta        90.0000
_cell_angle_gamma        89.9990
_cell_volume           734.531488
_space_group_crystal_system orthorhombic
_space_group_IT_number 19
_space_group_name_H-M_alt 'P2_12_12_1'
_space_group_name_Hall 'P 2ac 2ab'
loop_
_symmetry_equiv_pos_site_id
_symmetry_equiv_pos_as_xyz
 1 'x,y,z'
 2 '-x,-1/2+y,-1/2-z'
 3 '-1/2+x,-1/2-y,-z'
 4 '-1/2-x,-y,-1/2+z'
loop_
_atom_site_label
_atom_site_type_symbol
_atom_site_fract_x
_atom_site_fract_y
_atom_site_fract_z
C1    C     0.95999766014936 0.30904850999582 0.79621865019443 
C2    C     0.90203308977095 0.22109584019383 0.87334435994641 
C3    C     0.69325541081410 0.16576862969646 0.85261991975808 
C4    C     0.54524824933088 0.19928927013210 0.75546971006178 
C5    C     0.60042899950854 0.28927869018173 0.67404783002482 
C6    C     0.81262684026309 0.34517450034735 0.69456991965380 
C7    C     0.87041911058151 0.43301762031949 0.61048448995256 
C8    C     0.72779864979632 0.46326791972393 0.50912536989327 
C9    C     0.51869015028244 0.40799683964492 0.48885224001236 
C10   C     0.45538693003642 0.32365431021151 0.57047299013333 
H1    H     0.12162205949303 0.35109800963216 0.81130725017082 
H2    H     0.01726681966737 0.19450643985176 0.95071972001172 
H3    H     0.64784377935671 0.09654732014545 0.91388984007555 
H4    H     0.38455938012464 0.15674046991373 0.73950886962444 
H5    H     0.03165397022365 0.47501081972444 0.62634901994067 
H6    H     0.77498902953208 0.52967707959731 0.44379300047223 
H7    H     0.40808483943408 0.43114583994324 0.40753353974831 
H8    H     0.29483162069954 0.28108030961238 0.55515560029892 
