data_stdin
_audit_creation_method 'critic2'
_audit_creation_date 2023-8-11
_chemical_formula_sum 'C10 H8'
_cell_formula_units_Z 4
_cell_length_a         7.5893351800
_cell_length_b        15.7205018800
_cell_length_c         5.9970555214
_cell_angle_alpha        90.0013
_cell_angle_beta        90.0000
_cell_angle_gamma        90.0000
_cell_volume           715.497647
_space_group_crystal_system orthorhombic
_space_group_IT_number 33
_space_group_name_H-M_alt 'Pna2_1'
_space_group_name_Hall 'P 2c -2n'
loop_
_symmetry_equiv_pos_site_id
_symmetry_equiv_pos_as_xyz
 1 'x,y,z'
 2 '-x,-y,-1/2+z'
 3 '-1/2-x,-1/2+y,-1/2+z'
 4 '-1/2+x,-1/2-y,z'
loop_
_atom_site_label
_atom_site_type_symbol
_atom_site_fract_x
_atom_site_fract_y
_atom_site_fract_z
C1    C     0.85412135982100 0.48546104025170 0.00838789026776 
C2    C     0.86713822000009 0.40123072019892 0.94645413013170 
C3    C     0.79777563024349 0.37334418019426 0.73987740033757 
C4    C     0.71771591024677 0.43022869984361 0.59682028977018 
C5    C     0.70391504001186 0.51764092006083 0.65490888921877 
C6    C     0.77338984058851 0.54576267001428 0.86507189941822 
C7    C     0.76066766048301 0.63321868027832 0.92240364075610 
C8    C     0.68068854032720 0.69032756003406 0.77998543082569 
C9    C     0.60998994012044 0.66226506031631 0.57429265961555 
C10   C     0.62225463028343 0.57797341000993 0.51264899012634 
H1    H     0.90663446038724 0.50682597975959 0.16767006926518 
H2    H     0.93257621009129 0.35633672014180 0.05713058991750 
H3    H     0.80794112997894 0.30642795979834 0.69445979966298 
H4    H     0.66325520951164 0.40914275971001 0.43792743923619 
H5    H     0.81506747968039 0.65392660005002 0.08160435997392 
H6    H     0.67119882050508 0.75726498980811 0.82518742066623 
H7    H     0.54368641951266 0.70722128008948 0.46457674975538 
H8    H     0.56801564979685 0.55665802009867 0.35432472982162 
