data_stdin
_audit_creation_method 'critic2'
_audit_creation_date 2023-8-11
_chemical_formula_sum 'C10 H8'
_cell_formula_units_Z 4
_cell_length_a         4.5851637868
_cell_length_b        28.0834368599
_cell_length_c         5.8241171785
_cell_angle_alpha        89.9950
_cell_angle_beta        84.6193
_cell_angle_gamma        89.9855
_cell_volume           746.650417
_space_group_crystal_system monoclinic
_space_group_IT_number 9
_space_group_name_H-M_alt 'Cc'
_space_group_name_Hall 'C -2yc'
loop_
_symmetry_equiv_pos_site_id
_symmetry_equiv_pos_as_xyz
 1 'x,y,z'
 2 'x,-y,-1/2+z'
 3 '-1/2+x,-1/2+y,z'
 4 '-1/2+x,-1/2-y,-1/2+z'
loop_
_atom_site_label
_atom_site_type_symbol
_atom_site_fract_x
_atom_site_fract_y
_atom_site_fract_z
C1    C     0.12262769007394 0.18654148992639 0.09549460063272 
C2    C     0.93766784959096 0.20789168990303 0.95293408033916 
C3    C     0.86759093993654 0.18458636988160 0.74968181029343 
C4    C     0.98076544882418 0.14012340989303 0.69437366065338 
C5    C     0.17035600031637 0.11705911989591 0.83829950997890 
C6    C     0.24457439952496 0.14098463995119 0.04234479993176 
C7    C     0.43853578082426 0.11850212003627 0.18451924967819 
C8    C     0.55314477090345 0.07419497983746 0.12891433084199 
C9    C     0.47543238043427 0.05011404006498 0.92995681957074 
C10   C     0.28826580010102 0.07108052983304 0.78771721970103 
H1    H     0.17680835040161 0.20421946993159 0.25231470972513 
H2    H     0.84131783060327 0.24246970985442 0.99869312935726 
H3    H     0.72058622914000 0.20167476015002 0.63845697935806 
H4    H     0.92504948061554 0.12195873013352 0.53918926928612 
H5    H     0.49681688080299 0.13710495984622 0.33775435997110 
H6    H     0.70840405990751 0.05791975002816 0.23589068041666 
H7    H     0.56626257067548 0.01500608001396 0.88846673937235 
H8    H     0.22976430023886 0.05266324000707 0.63378612915545 
