data_stdin
_audit_creation_method 'critic2'
_audit_creation_date 2023-8-11
_chemical_formula_sum 'C10 H8'
_cell_formula_units_Z 4
_cell_length_a         7.1234839240
_cell_length_b        10.7583829700
_cell_length_c        10.1219108691
_cell_angle_alpha        90.0000
_cell_angle_beta        85.9127
_cell_angle_gamma        90.0000
_cell_volume           773.741639
_space_group_crystal_system monoclinic
_space_group_IT_number 14
_space_group_name_H-M_alt 'P2_1/c'
_space_group_name_Hall '-P 2ybc'
loop_
_symmetry_equiv_pos_site_id
_symmetry_equiv_pos_as_xyz
 1 'x,y,z'
 2 '-x,-y,-z'
 3 '-x,-1/2+y,-1/2-z'
 4 'x,-1/2-y,-1/2+z'
loop_
_atom_site_label
_atom_site_type_symbol
_atom_site_fract_x
_atom_site_fract_y
_atom_site_fract_z
C1    C     0.50728490053801 0.36295622025869 0.41411951016513 
C2    C     0.56081419021485 0.29973292001729 0.52379841960355 
C3    C     0.75271334986506 0.29323010002218 0.55075254006979 
C4    C     0.88789123028204 0.35017775000593 0.46719445956289 
C5    C     0.83753621063583 0.41664509965673 0.35384425037868 
C6    C     0.64255167042631 0.42360330034449 0.32681829038961 
C7    C     0.59221551974933 0.49280693964071 0.21518420004976 
C8    C     0.72755747060525 0.55211422977781 0.13380420017393 
C9    C     0.91975990023936 0.54537746008521 0.16036157049363 
C10   C     0.97305945044211 0.47868598041349 0.26779250975041 
H1    H     0.35927199040016 0.36911494005987 0.39421428974302 
H2    H     0.45547424949052 0.25640005989277 0.59223449986509 
H3    H     0.79291577030589 0.24392640977080 0.63828775049279 
H4    H     0.03546550946176 0.34669413965549 0.48885159023689 
H5    H     0.44424120950152 0.49984464003627 0.19515142021611 
H6    H     0.68607503053561 0.60517941962357 0.04911778962360 
H7    H     0.02497125003515 0.59378528965093 0.09622090005663 
H8    H     0.12038916019778 0.47476040962655 0.28977909007142 
