data_stdin
_audit_creation_method 'critic2'
_audit_creation_date 2023-8-11
_chemical_formula_sum 'C10 H8'
_cell_formula_units_Z 8
_cell_length_a         8.6229533735
_cell_length_b         8.8450786307
_cell_length_c        19.5128575605
_cell_angle_alpha        90.0007
_cell_angle_beta        94.1878
_cell_angle_gamma        90.0000
_cell_volume          1484.285806
_space_group_crystal_system monoclinic
_space_group_IT_number 15
_space_group_name_H-M_alt 'C2/c'
_space_group_name_Hall '-C 2yc'
loop_
_symmetry_equiv_pos_site_id
_symmetry_equiv_pos_as_xyz
 1 'x,y,z'
 2 '-x,-y,-z'
 3 '-x,y,-1/2-z'
 4 '-1/2+x,-1/2-y,-1/2+z'
 5 '-1/2+x,-1/2+y,z'
 6 '-1/2-x,-1/2-y,-z'
 7 '-1/2-x,-1/2+y,-1/2-z'
 8 'x,-y,-1/2+z'
loop_
_atom_site_label
_atom_site_type_symbol
_atom_site_fract_x
_atom_site_fract_y
_atom_site_fract_z
C1    C     0.15078595033061 0.84505050019618 0.68578535019148 
C2    C     0.31027105997374 0.84409020946133 0.69789984993978 
C3    C     0.40222361981141 0.95164186998525 0.66560697983541 
C4    C     0.33301054005390 0.05728224958494 0.62128477024039 
C5    C     0.16890403946685 0.06163210055953 0.60788374011681 
C6    C     0.07546519998680 0.95351303050185 0.64119909022547 
C7    C     0.91140189053560 0.95772182002036 0.62774896022428 
C8    C     0.84282828991114 0.06132674014689 0.58227117002746 
C9    C     0.93487256949665 0.16740277995634 0.54930209010186 
C10   C     0.09400276003048 0.16840709015781 0.56235522018270 
H1    H     0.08063236055275 0.76005303017116 0.70947919981641 
H2    H     0.36548848964001 0.75785577967069 0.73123716014419 
H3    H     0.52818822956747 0.94910441036234 0.67514544990379 
H4    H     0.40376639993655 0.13868754965959 0.59550400979453 
H5    H     0.84049553021026 0.87770606016261 0.65415353001210 
H6    H     0.71689115028090 0.06276862971966 0.57223610986763 
H7    H     0.87959836953781 0.24982065993275 0.51409531004365 
H8    H     0.16466567048932 0.25212008025853 0.53806911016581 
