data_stdin
_audit_creation_method 'critic2'
_audit_creation_date 2023-8-11
_chemical_formula_sum 'C10 H8'
_cell_formula_units_Z 4
_cell_length_a         5.9784345400
_cell_length_b        11.2871789900
_cell_length_c        10.5326780800
_cell_angle_alpha        90.0000
_cell_angle_beta        90.0000
_cell_angle_gamma        90.0000
_cell_volume           710.741543
_space_group_crystal_system orthorhombic
_space_group_IT_number 19
_space_group_name_H-M_alt 'P2_12_12_1'
_space_group_name_Hall 'P 2ac 2ab'
loop_
_symmetry_equiv_pos_site_id
_symmetry_equiv_pos_as_xyz
 1 'x,y,z'
 2 '-x,-1/2+y,-1/2-z'
 3 '-1/2+x,-1/2-y,-z'
 4 '-1/2-x,-y,-1/2+z'
loop_
_atom_site_label
_atom_site_type_symbol
_atom_site_fract_x
_atom_site_fract_y
_atom_site_fract_z
C1    C     0.66659462987881 0.62482421979226 0.05259222985519 
C2    C     0.82828105024752 0.56247858018558 0.98741533025109 
C3    C     0.82656669972027 0.43728522017424 0.98721778018541 
C4    C     0.66325632021922 0.37600048992401 0.05224749967100 
C5    C     0.49377080986196 0.43726815015413 0.12022118980246 
C6    C     0.49546066043573 0.56465757971575 0.12036808993029 
C7    C     0.32623532021375 0.62580276018427 0.18870440010233 
C8    C     0.16406648035581 0.56471826026012 0.25492849016980 
C9    C     0.16244075003648 0.43936724966632 0.25484061971413 
C10   C     0.32300140073367 0.37723522006834 0.18846453025150 
H1    H     0.66877350966071 0.72138169015552 0.05268666972048 
H2    H     0.95988355916458 0.60832629982271 0.93576917979029 
H3    H     0.95678568045872 0.39058091993573 0.93532281046317 
H4    H     0.66284869007167 0.27943730976234 0.05207177005632 
H5    H     0.32662594925075 0.72234545958465 0.18857823023877 
H6    H     0.03551254078026 0.61219803000685 0.30743570981582 
H7    H     0.03267397930613 0.39274782989630 0.30728188999500 
H8    H     0.32092723063029 0.28069151040489 0.18811874026392 
