data_stdin
_audit_creation_method 'critic2'
_audit_creation_date 2023-8-11
_chemical_formula_sum 'C10 H8'
_cell_formula_units_Z 8
_cell_length_a        29.7880670612
_cell_length_b         5.9622887702
_cell_length_c         8.1893218087
_cell_angle_alpha        89.9998
_cell_angle_beta        89.9957
_cell_angle_gamma        89.9998
_cell_volume          1454.464968
_space_group_crystal_system orthorhombic
_space_group_IT_number 60
_space_group_name_H-M_alt 'Pbcn'
_space_group_name_Hall '-P 2n 2ab'
loop_
_symmetry_equiv_pos_site_id
_symmetry_equiv_pos_as_xyz
 1 'x,y,z'
 2 '-x,-y,-z'
 3 '-1/2-x,-1/2-y,-1/2+z'
 4 '-1/2+x,-1/2+y,-1/2-z'
 5 '-1/2+x,-1/2-y,-z'
 6 '-1/2-x,-1/2+y,z'
 7 '-x,y,-1/2-z'
 8 'x,-y,-1/2+z'
loop_
_atom_site_label
_atom_site_type_symbol
_atom_site_fract_x
_atom_site_fract_y
_atom_site_fract_z
C1    C     0.39220067990580 0.00099566991463 0.40886792056647 
C2    C     0.43515093004008 0.05721310931574 0.45703754059340 
C3    C     0.45460619010757 0.26248333956071 0.40652448965104 
C4    C     0.43074999007867 0.40909806983710 0.30925463995592 
C5    C     0.38631310006683 0.35722285017810 0.25908067969379 
C6    C     0.36662626994435 0.14883505006550 0.30995898043174 
C7    C     0.32200447005200 0.09826851980376 0.26096736977184 
C8    C     0.29818313016321 0.24540911946111 0.16384736021317 
C9    C     0.31792902015992 0.44918012016345 0.11160929996915 
C10   C     0.36089294985286 0.50485087939168 0.15960958051244 
H1    H     0.37724395009032 0.84313719942507 0.44749652989492 
H2    H     0.45380762987962 0.94461856053427 0.53672374029752 
H3    H     0.48859453983471 0.30476865933420 0.44467633053975 
H4    H     0.44538871991458 0.56785991079432 0.27029857027414 
H5    H     0.30709871998653 0.94057527924051 0.30081928029395 
H6    H     0.26409157002005 0.20439511004506 0.12636955002320 
H7    H     0.29950925008895 0.56149649069584 0.03088125000674 
H8    H     0.37596808001460 0.66220584052216 0.12066459948982 
