data_stdin
_audit_creation_method 'critic2'
_audit_creation_date 2023-8-11
_chemical_formula_sum 'C10 H8'
_cell_formula_units_Z 4
_cell_length_a         8.0584707427
_cell_length_b        13.1078044170
_cell_length_c         7.0390606459
_cell_angle_alpha        89.9674
_cell_angle_beta        76.4285
_cell_angle_gamma        90.0075
_cell_volume           722.766979
_space_group_crystal_system triclinic
_space_group_IT_number 2
_space_group_name_H-M_alt 'P-1'
_space_group_name_Hall '-P 1'
loop_
_symmetry_equiv_pos_site_id
_symmetry_equiv_pos_as_xyz
 1 'x,y,z'
 2 '-x,-y,-z'
loop_
_atom_site_label
_atom_site_type_symbol
_atom_site_fract_x
_atom_site_fract_y
_atom_site_fract_z
C1    C     0.47607492985778 0.02830606028636 0.25811802050537 
C2    C     0.52363168010358 0.52830915986672 0.24222369969052 
C3    C     0.50231880960755 0.12043342983085 0.16115322997139 
C4    C     0.49752174973349 0.62037209966098 0.33919505032590 
C5    C     0.37029215943316 0.16542771999066 0.08767905022657 
C6    C     0.62971290967983 0.66533554996222 0.41239394932531 
C7    C     0.21416373992925 0.11761147966874 0.11330360017958 
C8    C     0.78586259944559 0.61756519985755 0.38650132059026 
C9    C     0.18290160999519 0.02284449995122 0.21300213934350 
C10   C     0.81696514924960 0.52284085973355 0.28686414073493 
C11   C     0.31674194955968 0.97724243983402 0.28706421952741 
C12   C     0.68295915037463 0.47727085984690 0.21308576956351 
C13   C     0.28549911040019 0.88246591970027 0.38669951969169 
C14   C     0.71397023026544 0.38249175971839 0.11365652022166 
C15   C     0.12943601001482 0.83458727034042 0.41213157957832 
C16   C     0.87003030056758 0.33463277972048 0.08800097993940 
C17   C     0.99741294063033 0.87956697964261 0.33862746931148 
C18   C     0.00226246057790 0.37962087012242 0.16109603945139 
C19   C     0.02360067046882 0.97174717019044 0.24182767947338 
C20   C     0.97626511978112 0.47176923011551 0.25780137046058 
H1    H     0.57821848007475 0.99293255991215 0.31247478953009 
H2    H     0.42138826042040 0.49294501982407 0.18805769046415 
H3    H     0.62575028060146 0.15817581001315 0.13861373986472 
H4    H     0.37404529992401 0.65804865008593 0.36206865015279 
H5    H     0.39319871038198 0.23722417992139 0.00760542969538 
H6    H     0.60689742954391 0.73706665968344 0.49251486062209 
H7    H     0.11262787956327 0.15140536968316 0.05565539943354 
H8    H     0.88752867990218 0.65134415036575 0.44391714024236 
H9    H     0.38703129051244 0.84863586037522 0.44430250941641 
H10   H     0.61226893056422 0.34867160014363 0.05635690010497 
H11   H     0.10660953041512 0.76274619992858 0.49207329990690 
H12   H     0.89265864021217 0.26278636002103 0.00822272053824 
H13   H     0.87408569954729 0.84169675023489 0.36089242937940 
H14   H     0.12564941993745 0.34183461024468 0.13844560055395 
H15   H     0.92149294045280 0.00710674998476 0.18738591041239 
H16   H     0.07851404030652 0.50712670036546 0.31197276021038 
