data_stdin
_audit_creation_method 'critic2'
_audit_creation_date 2023-8-11
_chemical_formula_sum 'C10 H8'
_cell_formula_units_Z 4
_cell_length_a         6.4101304885
_cell_length_b        10.2984836901
_cell_length_c        12.1515746164
_cell_angle_alpha        89.9995
_cell_angle_beta        61.9580
_cell_angle_gamma        89.9998
_cell_volume           708.007871
_space_group_crystal_system monoclinic
_space_group_IT_number 14
_space_group_name_H-M_alt 'P2_1/c'
_space_group_name_Hall '-P 2ybc'
loop_
_symmetry_equiv_pos_site_id
_symmetry_equiv_pos_as_xyz
 1 'x,y,z'
 2 '-x,-y,-z'
 3 '-x,-1/2+y,-1/2-z'
 4 'x,-1/2-y,-1/2+z'
loop_
_atom_site_label
_atom_site_type_symbol
_atom_site_fract_x
_atom_site_fract_y
_atom_site_fract_z
C1    C     0.65848535996808 0.46142258024021 0.78858495001976 
C2    C     0.77659392090183 0.54002385985542 0.83299286981848 
C3    C     0.02595724025871 0.54958528042595 0.76826746979035 
C4    C     0.15310888993753 0.48101835970747 0.65929906972577 
C5    C     0.03786883013165 0.39937776951524 0.61064532014075 
C6    C     0.78472617975468 0.38872871967645 0.67723676020251 
C7    C     0.66952657030644 0.30646573992560 0.62882911965370 
C8    C     0.79723913967878 0.23981699992257 0.51878554023588 
C9    C     0.04619108922401 0.25143337981838 0.45257355030907 
C10   C     0.16401421070587 0.32892960001275 0.49779013988654 
H1    H     0.46612003023401 0.45497980985994 0.83817877041831 
H2    H     0.67918315984835 0.59559539019813 0.91839224962119 
H3    H     0.11607782987705 0.61238613967768 0.80445857038080 
H4    H     0.34495671065678 0.48908769961919 0.60857774973915 
H5    H     0.47807507013660 0.29624537007115 0.67998207023884 
H6    H     0.70861803933903 0.17761649002101 0.48129536040331 
H7    H     0.14223634997959 0.19876993023302 0.36534244036528 
H8    H     0.35590570056873 0.33794873008588 0.44667702018929 
