data_stdin
_audit_creation_method 'critic2'
_audit_creation_date 2023-8-11
_chemical_formula_sum 'C10 H8'
_cell_formula_units_Z 4
_cell_length_a         7.6034212400
_cell_length_b         9.4087052400
_cell_length_c        10.6007807300
_cell_angle_alpha        90.0000
_cell_angle_beta        90.0000
_cell_angle_gamma        90.0000
_cell_volume           758.362354
_space_group_crystal_system orthorhombic
_space_group_IT_number 19
_space_group_name_H-M_alt 'P2_12_12_1'
_space_group_name_Hall 'P 2ac 2ab'
loop_
_symmetry_equiv_pos_site_id
_symmetry_equiv_pos_as_xyz
 1 'x,y,z'
 2 '-1/2-x,-y,-1/2+z'
 3 '-1/2+x,-1/2-y,-z'
 4 '-x,-1/2+y,-1/2-z'
loop_
_atom_site_label
_atom_site_type_symbol
_atom_site_fract_x
_atom_site_fract_y
_atom_site_fract_z
C1    C     0.36327244939584 0.09726042994474 0.79935723040487 
C2    C     0.22225931978395 0.01087894037067 0.82796978006095 
C3    C     0.23392837955956 0.91249809989946 0.92858551037825 
C4    C     0.38668594957264 0.90092559985854 0.99802507034805 
C5    C     0.53350348966660 0.98949006027355 0.97211764042352 
C6    C     0.52102398013433 0.09015006049154 0.87064487008329 
C7    C     0.66495383950542 0.18265843011402 0.84736042012329 
C8    C     0.81476534046938 0.17636038988880 0.92044662972482 
C9    C     0.82725154959688 0.07700509973067 0.02038098013698 
C10   C     0.68980755063143 0.98565088038163 0.04552398022357 
H1    H     0.35508939968927 0.17420007038135 0.72270496010410 
H2    H     0.10095729058919 0.01790538030771 0.77379567979284 
H3    H     0.12104404022461 0.84625650012449 0.95155127027758 
H4    H     0.39530714015473 0.82444118985217 0.07504250986715 
H5    H     0.65370461992919 0.26089136980694 0.77200216963901 
H6    H     0.92366058935298 0.24884155023519 0.90283828960152 
H7    H     0.94565851976473 0.07403000978336 0.07805374962795 
H8    H     0.69883463065283 0.91128832951431 0.12404931017840 
