data_stdin
_audit_creation_method 'critic2'
_audit_creation_date 2023-8-11
_chemical_formula_sum 'C10 H8'
_cell_formula_units_Z 2
_cell_length_a         6.9346037000
_cell_length_b         7.4310248517
_cell_length_c         7.8722237171
_cell_angle_alpha        87.5352
_cell_angle_beta       102.0617
_cell_angle_gamma        71.4155
_cell_volume           373.384938
_space_group_crystal_system triclinic
_space_group_IT_number 2
_space_group_name_H-M_alt 'P-1'
_space_group_name_Hall '-P 1'
loop_
_symmetry_equiv_pos_site_id
_symmetry_equiv_pos_as_xyz
 1 'x,y,z'
 2 '-x,-y,-z'
loop_
_atom_site_label
_atom_site_type_symbol
_atom_site_fract_x
_atom_site_fract_y
_atom_site_fract_z
C1    C     0.23906178064820 0.36472463927378 0.65898908021586 
C2    C     0.40655622972059 0.22621625056235 0.62177378941528 
C3    C     0.60652915961741 0.24661677960948 0.65528495935460 
C4    C     0.63652306045243 0.40353355043179 0.72870898997064 
C5    C     0.46749381962268 0.54941261972890 0.76758903021981 
C6    C     0.26370592947198 0.53035768986187 0.73043638028139 
C7    C     0.09329338055380 0.67858982959401 0.76517877004453 
C8    C     0.12225824978259 0.83824412030711 0.83377907017038 
C9    C     0.32338323958487 0.85640800038944 0.87155775949576 
C10   C     0.49205424909723 0.71484781043327 0.83956933945249 
H1    H     0.08494486043976 0.34902678956009 0.63191345012718 
H2    H     0.38450219986202 0.10021638016404 0.56702415057924 
H3    H     0.73664894068964 0.13846583994758 0.62164700036753 
H4    H     0.79101114017358 0.41815374022542 0.75725536002213 
H5    H     0.93814438005629 0.66521096053700 0.73415536013480 
H6    H     0.99007939039368 0.95121001922083 0.85919241050666 
H7    H     0.34385685963825 0.98338252961370 0.92530857046486 
H8    H     0.64726063985568 0.72822080966144 0.86946518970789 
