data_stdin
_audit_creation_method 'critic2'
_audit_creation_date 2023-8-11
_chemical_formula_sum 'C10 H8'
_cell_formula_units_Z 8
_cell_length_a        14.9719714803
_cell_length_b        16.1416388304
_cell_length_c         5.9491565098
_cell_angle_alpha        90.0016
_cell_angle_beta        89.9978
_cell_angle_gamma        90.0000
_cell_volume          1437.745480
_space_group_crystal_system orthorhombic
_space_group_IT_number 41
_space_group_name_H-M_alt 'Aea2'
_space_group_name_Hall 'A 2 -2ac'
loop_
_symmetry_equiv_pos_site_id
_symmetry_equiv_pos_as_xyz
 1 'x,y,z'
 2 '-x,-y,z'
 3 '-1/2-x,y,-1/2+z'
 4 '-1/2+x,-y,-1/2+z'
 5 'x,-1/2+y,-1/2+z'
 6 '-x,-1/2-y,-1/2+z'
 7 '-1/2-x,-1/2+y,z'
 8 '-1/2+x,-1/2-y,z'
loop_
_atom_site_label
_atom_site_type_symbol
_atom_site_fract_x
_atom_site_fract_y
_atom_site_fract_z
C1    C     0.17212083997566 0.36378964028111 0.99622170021171 
C2    C     0.15745732010406 0.44428434009320 0.06470737951180 
C3    C     0.11509185002458 0.46085551015073 0.27259631986977 
C4    C     0.08858784977775 0.39659326023920 0.41010853917360 
C5    C     0.10349486016220 0.31301637990784 0.34569462081632 
C6    C     0.14598784970368 0.29622821023547 0.13408331998976 
C7    C     0.16125589001822 0.21261768009121 0.07031029027900 
C8    C     0.13437779027251 0.14848346014218 0.20808756931257 
C9    C     0.09129744997401 0.16502234014155 0.41526024974894 
C10   C     0.07695244986962 0.24560934985284 0.48347282973310 
H1    H     0.20451522974038 0.35130499010076 0.83601502932528 
H2    H     0.17925595996059 0.49539724001544 0.95867634032916 
H3    H     0.10310086009974 0.52471874990731 0.32326934965162 
H4    H     0.05622317009611 0.40874364984652 0.57086419017099 
H5    H     0.19458724970136 0.20007420019688 0.91105830979226 
H6    H     0.14638145020685 0.08459733982070 0.15717591975688 
H7    H     0.06860584009205 0.11403921969978 0.52064083938359 
H8    H     0.04444997967752 0.25849872995735 0.64333672036614 
