data_stdin
_audit_creation_method 'critic2'
_audit_creation_date 2023-8-11
_chemical_formula_sum 'C10 H8'
_cell_formula_units_Z 8
_cell_length_a         5.8990361728
_cell_length_b         8.1501436961
_cell_length_c        31.9921358840
_cell_angle_alpha        89.9890
_cell_angle_beta        89.9920
_cell_angle_gamma        90.0004
_cell_volume          1538.117625
_space_group_crystal_system monoclinic
_space_group_IT_number 14
_space_group_name_H-M_alt 'P2_1/c'
_space_group_name_Hall '-P 2ybc'
loop_
_symmetry_equiv_pos_site_id
_symmetry_equiv_pos_as_xyz
 1 'x,y,z'
 2 '-x,-y,-z'
 3 '-1/2+x,-1/2-y,-z'
 4 '-1/2-x,-1/2+y,z'
loop_
_atom_site_label
_atom_site_type_symbol
_atom_site_fract_x
_atom_site_fract_y
_atom_site_fract_z
C1    C     0.16966813868256 0.31479959792149 0.33771301126143 
C2    C     0.83034349498864 0.31459614849070 0.16228751997318 
C3    C     0.02562558087597 0.40919049425529 0.31369657085869 
C4    C     0.97440277970449 0.40893402924445 0.18630734448889 
C5    C     0.81442270676015 0.46221267908719 0.32988892369978 
C6    C     0.18560968556362 0.46196810307931 0.17011588502983 
C7    C     0.75070308482294 0.41986085743735 0.36996995673080 
C8    C     0.24931529477909 0.41968055633448 0.13003366118679 
C9    C     0.89568327794279 0.32393120138893 0.39557642054985 
C10   C     0.10432070680954 0.32380161472251 0.10442450638284 
C11   C     0.10955258639824 0.27021175911161 0.37915948040983 
C12   C     0.89044682783594 0.27007343263059 0.12084006144566 
C13   C     0.25429130808550 0.17428822939648 0.40481245404954 
C14   C     0.74569761545481 0.17419458301859 0.09518506060643 
C15   C     0.19080896897986 0.13247831874476 0.44494465478024 
C16   C     0.80917497219374 0.13243645618517 0.05505310655803 
C17   C     0.98004358003251 0.18601823003465 0.46121244666024 
C18   C     0.01994600134652 0.18598663936007 0.03878652055979 
C19   C     0.83608347182938 0.27990263695698 0.43706819709221 
C20   C     0.16391359620809 0.27983127366731 0.06293257116127 
H1    H     0.33246206204276 0.27396973576149 0.32544493909590 
H2    H     0.66754487572078 0.27375585254401 0.17455385793753 
H3    H     0.07564078609259 0.44383793997575 0.28212947534024 
H4    H     0.92440343529303 0.44352173857323 0.21787630602715 
H5    H     0.70244572909692 0.53816414616070 0.31091001425881 
H6    H     0.29760543389124 0.53787822915678 0.18909618347597 
H7    H     0.58884174136542 0.46059518467792 0.38258296884667 
H8    H     0.41118148242306 0.46042618931757 0.11742223801042 
H9    H     0.41625140123247 0.13360539939959 0.39225210699222 
H10   H     0.58373160552876 0.13350207180045 0.10774369866160 
H11   H     0.30353864269655 0.05767356179668 0.46405925287145 
H12   H     0.69643917104621 0.05765971364634 0.03593815741282 
H13   H     0.93074848850149 0.15334536966062 0.49295246592222 
H14   H     0.06923715920731 0.15335716878680 0.00704656318596 
H15   H     0.67360828621644 0.32119312786090 0.44931699787317 
H16   H     0.32639327516225 0.32113264979074 0.05068550595042 
