data_stdin
_audit_creation_method 'critic2'
_audit_creation_date 2023-8-11
_chemical_formula_sum 'C10 H8'
_cell_formula_units_Z 8
_cell_length_a        27.4625280349
_cell_length_b         3.9480169933
_cell_length_c        14.3831572867
_cell_angle_alpha        90.0244
_cell_angle_beta        70.5762
_cell_angle_gamma        89.5974
_cell_volume          1470.658559
_space_group_crystal_system triclinic
_space_group_IT_number 2
_space_group_name_H-M_alt 'P-1'
_space_group_name_Hall '-P 1'
loop_
_symmetry_equiv_pos_site_id
_symmetry_equiv_pos_as_xyz
 1 'x,y,z'
 2 '-x,-y,-z'
 3 '-1/2+x,-1/2+y,z'
 4 '-1/2-x,-1/2-y,-z'
loop_
_atom_site_label
_atom_site_type_symbol
_atom_site_fract_x
_atom_site_fract_y
_atom_site_fract_z
C1    C     0.30819938996532 0.43840935892020 0.25400113030543 
C2    C     0.69212118014210 0.44317548987392 0.24554073974561 
C3    C     0.28568606002395 0.49743737924474 0.35366044985161 
C4    C     0.71456949001148 0.50151541919577 0.14596363032253 
C5    C     0.31076112013265 0.39202171093672 0.42028010022027 
C6    C     0.68947688993791 0.39950201946451 0.07926458993343 
C7    C     0.35771125015273 0.22626185056437 0.38622737967032 
C8    C     0.64255922987933 0.23795887011054 0.11315373017422 
C9    C     0.38145609994909 0.15539615922310 0.28436742997345 
C10   C     0.61887236015411 0.16801413958387 0.21492538005917 
C11   C     0.35620456011844 0.26454377904813 0.21667422023913 
C12   C     0.64416852991687 0.27339352980980 0.28269204968984 
C13   C     0.38000517988276 0.19318538977012 0.11483500996893 
C14   C     0.62047883019093 0.20238566026421 0.38441709963864 
C15   C     0.42619912013193 0.01767466917590 0.08140557971180 
C16   C     0.57436421023585 0.03052073042044 0.41764713965085 
C17   C     0.45082576005938 0.90729981990700 0.14826737979291 
C18   C     0.54967227999941 0.92415157912157 0.35072007017396 
C19   C     0.42898795009658 0.97630996106996 0.24749484004593 
C20   C     0.57137264002507 0.99322319056739 0.25161860999776 
H1    H     0.28910484017564 0.52590170917982 0.20293659999775 
H2    H     0.71123588992454 0.52800349116377 0.29667109013857 
H3    H     0.24864496011071 0.62861994945728 0.38138468993280 
H4    H     0.75156466010587 0.62962807936584 0.11837949985136 
H5    H     0.29251819001439 0.44112272987204 0.49877334030153 
H6    H     0.70768420006660 0.44785542032948 0.00083540019153 
H7    H     0.37701483998508 0.14549306023470 0.43755157973072 
H8    H     0.62324042987987 0.15985357966325 0.06176183035937 
H9    H     0.36110999000193 0.27902727995489 0.06324457986467 
H10   H     0.63941404993326 0.28531775947415 0.43606705987411 
H11   H     0.44394787005940 0.95989019874539 0.00327999976642 
H12   H     0.55675497018206 0.97228795972689 0.49564176965194 
H13   H     0.48644197998865 0.75997135047636 0.12113260018848 
H14   H     0.51415139986307 0.77935188943250 0.37767695008977 
H15   H     0.44759620010584 0.88915183032077 0.29933690980757 
H16   H     0.55267925008826 0.90935708991218 0.19974400991436 
