data_stdin
_audit_creation_method 'critic2'
_audit_creation_date 2023-8-11
_chemical_formula_sum 'C10 H8'
_cell_formula_units_Z 4
_cell_length_a        15.1473168723
_cell_length_b         5.8885986664
_cell_length_c         7.9657730645
_cell_angle_alpha        90.0001
_cell_angle_beta        90.0078
_cell_angle_gamma        89.9853
_cell_volume           710.518808
_space_group_crystal_system monoclinic
_space_group_IT_number 4
_space_group_name_H-M_alt 'P2_1'
_space_group_name_Hall 'P 2yb'
loop_
_symmetry_equiv_pos_site_id
_symmetry_equiv_pos_as_xyz
 1 'x,y,z'
 2 '-1/2-x,-y,-1/2+z'
loop_
_atom_site_label
_atom_site_type_symbol
_atom_site_fract_x
_atom_site_fract_y
_atom_site_fract_z
C1    C     0.94060050001256 0.07684119986940 0.52269796939682 
C2    C     0.44053776029062 0.42291437012395 0.47736688954459 
C3    C     0.93601357989819 0.93315910023336 0.38613509997419 
C4    C     0.43600444992969 0.56670473941787 0.61387772026598 
C5    C     0.89228364010292 0.72146924923499 0.39914290980124 
C6    C     0.39230755016279 0.77848642054594 0.60078500989602 
C7    C     0.85366337026526 0.65674127051951 0.54828756009614 
C8    C     0.35367179021733 0.84322645917568 0.45162612966503 
C9    C     0.85565607990827 0.80199529012772 0.69029032940817 
C10   C     0.35562685009904 0.69788486953371 0.30966010948091 
C11   C     0.90020369979299 0.01647894963088 0.67746959032592 
C12   C     0.40012082024102 0.48329265044583 0.32257961031701 
C13   C     0.90178000029035 0.16185740057839 0.81958299962284 
C14   C     0.40166475968148 0.33782885008340 0.18050541056673 
C15   C     0.85978848031039 0.10046047073407 0.96635081044328 
C16   C     0.35971629972710 0.39930430941774 0.03368065963921 
C17   C     0.81527861016309 0.88984122970384 0.97865115053552 
C18   C     0.31527509012892 0.61006254990983 0.02126664955618 
C19   C     0.81388080994643 0.74313491018124 0.84373600044270 
C20   C     0.31388553014942 0.75681714056335 0.15615923030243 
H1    H     0.97497203010650 0.23909864042862 0.51408654057679 
H2    H     0.47487723002161 0.26056773924886 0.48602352962988 
H3    H     0.96586355023420 0.98213831997921 0.26722221021468 
H4    H     0.46587601995709 0.51774894954968 0.73280003968298 
H5    H     0.88907830984414 0.60988271996777 0.29022814952105 
H6    H     0.38914844968999 0.89017534997732 0.70965021039776 
H7    H     0.82083291970958 0.49290108009211 0.55929739038900 
H8    H     0.32087179017796 0.00715150979812 0.44058629940079 
H9    H     0.93649449005909 0.32323238980051 0.81102704984953 
H10   H     0.43633059014756 0.17634496032639 0.18913302966003 
H11   H     0.86065242032198 0.21444246057588 0.07398178048597 
H12   H     0.36055757001904 0.28526352037749 0.92608004053658 
H13   H     0.78193033004472 0.84601495999174 0.09530044982437 
H14   H     0.28198085969018 0.65397221041091 0.90455508940378 
H15   H     0.78055355997088 0.57957713082017 0.85238001045043 
H16   H     0.28060211006386 0.92047363082689 0.14744406974414 
