data_stdin
_audit_creation_method 'critic2'
_audit_creation_date 2023-8-11
_chemical_formula_sum 'C10 H8'
_cell_formula_units_Z 8
_cell_length_a        29.9392499829
_cell_length_b         5.9319990001
_cell_length_c         8.0438116903
_cell_angle_alpha        89.9998
_cell_angle_beta        99.9267
_cell_angle_gamma        90.0004
_cell_volume          1407.190528
_space_group_crystal_system monoclinic
_space_group_IT_number 15
_space_group_name_H-M_alt 'C2/c'
_space_group_name_Hall '-C 2yc'
loop_
_symmetry_equiv_pos_site_id
_symmetry_equiv_pos_as_xyz
 1 'x,y,z'
 2 '-x,-y,-z'
 3 '-x,y,-1/2-z'
 4 'x,-y,-1/2+z'
 5 '-1/2+x,-1/2+y,z'
 6 '-1/2-x,-1/2-y,-z'
 7 '-1/2-x,-1/2+y,-1/2-z'
 8 '-1/2+x,-1/2-y,-1/2+z'
loop_
_atom_site_label
_atom_site_type_symbol
_atom_site_fract_x
_atom_site_fract_y
_atom_site_fract_z
C1    C     0.14584100994919 0.49831279062014 0.25987519029621 
C2    C     0.18977408997760 0.55683273062606 0.32844853051707 
C3    C     0.20786110991471 0.76621214921270 0.28730452035215 
C4    C     0.18173767993866 0.91363781000369 0.17877818013666 
C5    C     0.13632315996841 0.85931583979398 0.10735144937681 
C6    C     0.11803638985434 0.64707369057888 0.14872494004129 
C7    C     0.07256158999933 0.59318970956348 0.07764144951191 
C8    C     0.04632460012237 0.74184020952585 0.97039946060597 
C9    C     0.06443518005482 0.95111192917727 0.92935151032859 
C10   C     0.10849873988065 0.00849044025861 0.99674538983135 
H1    H     0.13184361990579 0.33752103984641 0.29109783050481 
H2    H     0.21045884994188 0.44151824032032 0.41502619031400 
H3    H     0.24253331006524 0.81209918958441 0.34164681950459 
H4    H     0.19540912010372 0.07482474015680 0.14664245973576 
H5    H     0.05905346006139 0.43152316035874 0.10974122042271 
H6    H     0.01150351988229 0.69852799024231 0.91640414957874 
H7    H     0.04366816990130 0.06695195967819 0.84355066011010 
H8    H     0.12255552996012 0.16909390939666 0.96552414951223 
