data_stdin
_audit_creation_method 'critic2'
_audit_creation_date 2023-8-11
_chemical_formula_sum 'C10 H8'
_cell_formula_units_Z 4
_cell_length_a         7.7595734300
_cell_length_b         8.0608813000
_cell_length_c        12.5735771753
_cell_angle_alpha        90.0000
_cell_angle_beta        69.3141
_cell_angle_gamma        90.0000
_cell_volume           735.761922
_space_group_crystal_system monoclinic
_space_group_IT_number 14
_space_group_name_H-M_alt 'P2_1/c'
_space_group_name_Hall '-P 2ybc'
loop_
_symmetry_equiv_pos_site_id
_symmetry_equiv_pos_as_xyz
 1 'x,y,z'
 2 '-x,-y,-z'
 3 '-x,-1/2+y,-1/2-z'
 4 'x,-1/2-y,-1/2+z'
loop_
_atom_site_label
_atom_site_type_symbol
_atom_site_fract_x
_atom_site_fract_y
_atom_site_fract_z
C1    C     0.91315662959283 0.19293035949014 0.57514188007582 
C2    C     0.84642675003046 0.07663076984867 0.66015791023850 
C3    C     0.96680186031017 0.99465226947536 0.70519234012030 
C4    C     0.15233653988556 0.03152636002532 0.66484253973931 
C5    C     0.22568543948057 0.15149457988096 0.57778367021283 
C6    C     0.10356624945238 0.23268840941608 0.53124848037991 
C7    C     0.17716286021300 0.34876715042161 0.44175552000000 
C8    C     0.36275334000706 0.38492797040872 0.40080561007963 
C9    C     0.48332216028683 0.30666480054899 0.44744861988125 
C10   C     0.41591551044385 0.19276331942448 0.53416458034348 
H1    H     0.82156861949587 0.25435147024223 0.53890520006696 
H2    H     0.70083340995414 0.04431797989103 0.69146873993206 
H3    H     0.91268539039582 0.90074644986177 0.77078519009230 
H4    H     0.24548576990518 0.96686022977869 0.69839201018245 
H5    H     0.08449293045987 0.40783509044814 0.40535534010599 
H6    H     0.41718004068756 0.47541051950102 0.33278306958422 
H7    H     0.62943155986169 0.33721714053714 0.41455499002047 
H8    H     0.50850150042791 0.13100355972905 0.56948786000965 
