data_stdin
_audit_creation_method 'critic2'
_audit_creation_date 2023-8-11
_chemical_formula_sum 'C10 H8'
_cell_formula_units_Z 4
_cell_length_a        24.9782971602
_cell_length_b         3.9024763050
_cell_length_c         8.0549204211
_cell_angle_alpha        89.9989
_cell_angle_beta        89.9993
_cell_angle_gamma        90.0026
_cell_volume           785.171191
_space_group_crystal_system orthorhombic
_space_group_IT_number 31
_space_group_name_H-M_alt 'Pmn2_1'
_space_group_name_Hall 'P 2ac -2'
loop_
_symmetry_equiv_pos_site_id
_symmetry_equiv_pos_as_xyz
 1 'x,y,z'
 2 '-1/2-x,-y,-1/2+z'
 3 '-x,y,z'
 4 '-1/2+x,-y,-1/2+z'
loop_
_atom_site_label
_atom_site_type_symbol
_atom_site_fract_x
_atom_site_fract_y
_atom_site_fract_z
C1    C     0.30880909002537 0.69254313931027 0.99461782059822 
C2    C     0.33482934009184 0.65715225941673 0.84472579051435 
C3    C     0.38800605982393 0.77553941110341 0.82570186029633 
C4    C     0.41414228006431 0.92881693082094 0.95680894021674 
C5    C     0.38848496980624 0.97037378916178 0.11259699978429 
C6    C     0.33453547989609 0.85009889971398 0.13183949989064 
C7    C     0.30879491986573 0.89284162910568 0.28743055982284 
C8    C     0.33517714017259 0.04388915000435 0.41869517949710 
C9    C     0.38835532988329 0.16230446031644 0.39987587055023 
C10   C     0.41424745987445 0.12797607895115 0.24972225976884 
H1    H     0.26802070004234 0.59863273938487 0.00959375040640 
H2    H     0.31470646008357 0.53571056103725 0.74024706999185 
H3    H     0.40804052007077 0.74664278072236 0.70646278979945 
H4    H     0.45494559991818 0.02278869096954 0.94219245988568 
H5    H     0.26766183015024 0.80490979009162 0.30196750969644 
H6    H     0.31519534015062 0.07157610940421 0.53806052003096 
H7    H     0.40846624004598 0.28491138875926 0.50404662058920 
H8    H     0.45485785997863 0.22440974102324 0.23395570946543 
