data_stdin
_audit_creation_method 'critic2'
_audit_creation_date 2023-8-11
_chemical_formula_sum 'C10 H8'
_cell_formula_units_Z 8
_cell_length_a         7.3813154218
_cell_length_b        17.2797146801
_cell_length_c        11.4028432411
_cell_angle_alpha        89.9991
_cell_angle_beta        90.0009
_cell_angle_gamma        89.9990
_cell_volume          1454.398725
_space_group_crystal_system orthorhombic
_space_group_IT_number 61
_space_group_name_H-M_alt 'Pbca'
_space_group_name_Hall '-P 2ac 2ab'
loop_
_symmetry_equiv_pos_site_id
_symmetry_equiv_pos_as_xyz
 1 'x,y,z'
 2 '-x,-y,-z'
 3 '-1/2-x,-y,-1/2+z'
 4 '-1/2+x,y,-1/2-z'
 5 '-1/2+x,-1/2-y,-z'
 6 '-1/2-x,-1/2+y,z'
 7 '-x,-1/2+y,-1/2-z'
 8 'x,-1/2-y,-1/2+z'
loop_
_atom_site_label
_atom_site_type_symbol
_atom_site_fract_x
_atom_site_fract_y
_atom_site_fract_z
C1    C     0.16825339055208 0.75972556983199 0.26919218997848 
C2    C     0.22875870971615 0.69034347996378 0.31461868013677 
C3    C     0.32052532983211 0.68824150028148 0.42353920032812 
C4    C     0.35058532042799 0.75562689001006 0.48539341000441 
C5    C     0.28908951942235 0.82784813981666 0.44155576005377 
C6    C     0.19516132943593 0.82996934014577 0.33135275997930 
C7    C     0.12964039005093 0.90203509978635 0.28891980035102 
C8    C     0.15608682065684 0.96903278020626 0.35243312028103 
C9    C     0.25176798018277 0.96726456011370 0.46014106028099 
C10   C     0.31725502988918 0.89816397008788 0.50349183980824 
H1    H     0.09804128951967 0.76132309007200 0.18534711993345 
H2    H     0.20546640944996 0.63696427983136 0.26598068998857 
H3    H     0.37058047970119 0.63364953990886 0.45855933019622 
H4    H     0.42196316956065 0.75422337018559 0.56878515002382 
H5    H     0.05607549968364 0.90329036013362 0.20610272026823 
H6    H     0.10224585970320 0.02365107977294 0.31987385035230 
H7    H     0.27334017000945 0.02056589026830 0.50916042996324 
H8    H     0.39192166995345 0.89642715977609 0.58589438027647 
