data_stdin
_audit_creation_method 'critic2'
_audit_creation_date 2023-8-11
_chemical_formula_sum 'C10 H8'
_cell_formula_units_Z 4
_cell_length_a        11.4971808600
_cell_length_b         8.0033704300
_cell_length_c         7.9249646700
_cell_angle_alpha        90.0000
_cell_angle_beta        90.0000
_cell_angle_gamma        90.0000
_cell_volume           729.225113
_space_group_crystal_system orthorhombic
_space_group_IT_number 33
_space_group_name_H-M_alt 'Pna2_1'
_space_group_name_Hall 'P 2c -2n'
loop_
_symmetry_equiv_pos_site_id
_symmetry_equiv_pos_as_xyz
 1 'x,y,z'
 2 '-x,-y,-1/2+z'
 3 '-1/2-x,-1/2+y,-1/2+z'
 4 '-1/2+x,-1/2-y,z'
loop_
_atom_site_label
_atom_site_type_symbol
_atom_site_fract_x
_atom_site_fract_y
_atom_site_fract_z
C1    C     0.28474626777278 0.47465143011813 0.98086816313180 
C2    C     0.30018341000031 0.30498326744833 0.00171681293552 
C3    C     0.21516115578473 0.20917841327454 0.08719604830805 
C4    C     0.11609044850041 0.28431457065165 0.14960501759633 
C5    C     0.09737200464467 0.45848539749825 0.12920373105272 
C6    C     0.18364149945245 0.55609581354158 0.04300190308801 
C7    C     0.16298731754768 0.72944317125675 0.01811603255631 
C8    C     0.06166804939943 0.80253733164474 0.07548400408524 
C9    C     0.97723574850300 0.70664338744420 0.16239849254946 
C10   C     0.99504848705829 0.53820262118862 0.18871952125982 
H1    H     0.34950333519318 0.54858908695467 0.91417943035470 
H2    H     0.37728030758049 0.24377111407905 0.95120909213482 
H3    H     0.22901215906209 0.07566522729475 0.10410454735240 
H4    H     0.04965352670526 0.21163135535193 0.21490890753650 
H5    H     0.22766888556980 0.80285683641456 0.95016679071810 
H6    H     0.04622296138682 0.93508840567229 0.05384999632739 
H7    H     0.89807988958461 0.76586302919761 0.20850392884587 
H8    H     0.93068506308275 0.46391680976791 0.25581586975360 
