data_stdin
_audit_creation_method 'critic2'
_audit_creation_date 2023-8-11
_chemical_formula_sum 'C10 H8'
_cell_formula_units_Z 4
_cell_length_a        23.3247936117
_cell_length_b         3.9004480786
_cell_length_c         8.1023382446
_cell_angle_alpha        90.0106
_cell_angle_beta        95.2856
_cell_angle_gamma        89.8010
_cell_volume           733.988768
_space_group_crystal_system triclinic
_space_group_IT_number 1
_space_group_name_H-M_alt 'P1'
_space_group_name_Hall 'P 1'
loop_
_symmetry_equiv_pos_site_id
_symmetry_equiv_pos_as_xyz
 1 'x,y,z'
 2 '-1/2+x,-1/2+y,z'
loop_
_atom_site_label
_atom_site_type_symbol
_atom_site_fract_x
_atom_site_fract_y
_atom_site_fract_z
C1    C     0.18836472018023 0.02132780886007 0.38951473986027 
C2    C     0.81164646979143 0.01943330939948 0.61062716940537 
C3    C     0.16118880013616 0.05612892032568 0.53271483983346 
C4    C     0.83880793998055 0.05315827067066 0.46740645039976 
C5    C     0.10423743013664 0.93651196992694 0.53944915001798 
C6    C     0.89574227018637 0.93103733892859 0.46056915993332 
C7    C     0.07561403013682 0.78139345930971 0.40308647987767 
C8    C     0.92435933997181 0.77442401038720 0.59681902941912 
C9    C     0.10242612011213 0.73963178981401 0.25425064043289 
C10   C     0.89756180008635 0.73373190953730 0.74567597028768 
C11   C     0.16002189015586 0.86278215104177 0.24705871978789 
C12   C     0.83999067012483 0.85955069962183 0.75299278044368 
C13   C     0.18637267983589 0.82400750062092 0.09715682995323 
C14   C     0.81366313995438 0.82199572092011 0.90293835959214 
C15   C     0.15723035988986 0.67202755012872 0.96066774981716 
C16   C     0.84280328992751 0.66867317116400 0.03935299985926 
C17   C     0.10061469016624 0.54819629939762 0.96828539044487 
C18   C     0.89938530017190 0.54209430118169 0.03159653948886 
C19   C     0.07397870999729 0.58008009099995 0.11240667967974 
C20   C     0.92599343007997 0.57268683958465 0.88741749958703 
H1    H     0.23190025011329 0.11870179059726 0.38427956997766 
H2    H     0.76812483017084 0.11873815088985 0.61594623054946 
H3    H     0.18334288999693 0.17968413025239 0.64090881054821 
H4    H     0.81665428990367 0.17780154936152 0.35929020985578 
H5    H     0.08325879985237 0.96652197884121 0.65326831029642 
H6    H     0.91671179995831 0.96034979116679 0.34674666952656 
H7    H     0.03189839985870 0.68640086890237 0.40735581969450 
H8    H     0.96805929985125 0.67741765967674 0.59247671019864 
H9    H     0.22998007004405 0.91878939084660 0.09072259045735 
H10   H     0.77007694984132 0.91882306100578 0.90945398984302 
H11   H     0.17752679982656 0.64812068039159 0.84542416958359 
H12   H     0.82252411988839 0.64578200880013 0.15463128021988 
H13   H     0.07853672986139 0.42398344883407 0.86013728056641 
H14   H     0.92146253005008 0.41676290039675 0.13965812945496 
H15   H     0.03065176990237 0.48205678886746 0.12002948046762 
H16   H     0.96928955981173 0.47247067070599 0.87968886949444 
