data_stdin
_audit_creation_method 'critic2'
_audit_creation_date 2023-8-11
_chemical_formula_sum 'C10 H8'
_cell_formula_units_Z 4
_cell_length_a         8.3349415164
_cell_length_b        15.1777445900
_cell_length_c         5.9678152252
_cell_angle_alpha        89.9947
_cell_angle_beta        72.5775
_cell_angle_gamma        90.0003
_cell_volume           720.326427
_space_group_crystal_system monoclinic
_space_group_IT_number 14
_space_group_name_H-M_alt 'P2_1/c'
_space_group_name_Hall '-P 2ybc'
loop_
_symmetry_equiv_pos_site_id
_symmetry_equiv_pos_as_xyz
 1 'x,y,z'
 2 '-x,-y,-z'
 3 '-x,-1/2+y,-1/2-z'
 4 'x,-1/2-y,-1/2+z'
loop_
_atom_site_label
_atom_site_type_symbol
_atom_site_fract_x
_atom_site_fract_y
_atom_site_fract_z
C1    C     0.24173914973035 0.32904635020790 0.88824291914268 
C2    C     0.07531327953433 0.34437555004825 0.90576623074512 
C3    C     0.03145506978654 0.38544642996895 0.71940617000655 
C4    C     0.15459432953806 0.41025332970092 0.51778787996535 
C5    C     0.32694758957150 0.39531636009914 0.49402407065732 
C6    C     0.37150352980374 0.35367668024422 0.68305775063405 
C7    C     0.54384322014220 0.33731405019731 0.65779163044023 
C8    C     0.66668499997990 0.36232784977874 0.45617098037758 
C9    C     0.62292869996505 0.40492608987398 0.27163360055239 
C10   C     0.45671851960480 0.42049420003264 0.28968208001593 
H1    H     0.27518755039980 0.29714791027394 0.03135576032845 
H2    H     0.97735578001616 0.32390767967849 0.06300657932189 
H3    H     0.89955833037013 0.39696727027066 0.73500457085772 
H4    H     0.12096257051613 0.44125318994709 0.37332559992745 
H5    H     0.57673666945307 0.30437659019798 0.80028781005207 
H6    H     0.79846430962730 0.34941935011167 0.43844571915241 
H7    H     0.72163254989081 0.42624291996238 0.11617568950905 
H8    H     0.42234475048059 0.45262969989252 0.14743715042382 
