data_stdin
_audit_creation_method 'critic2'
_audit_creation_date 2023-8-11
_chemical_formula_sum 'C10 H8'
_cell_formula_units_Z 18
_cell_length_a        21.4357262801
_cell_length_b        21.4447267301
_cell_length_c         8.4974704018
_cell_angle_alpha        90.0157
_cell_angle_beta        90.0014
_cell_angle_gamma       119.9770
_cell_volume          3383.606006
_space_group_crystal_system triclinic
_space_group_IT_number 2
_space_group_name_H-M_alt 'P-1'
_space_group_name_Hall '-P 1'
loop_
_symmetry_equiv_pos_site_id
_symmetry_equiv_pos_as_xyz
 1 'x,y,z'
 2 '-x,-y,-z'
 3 '-1/3+x,-2/3+y,-2/3+z'
 4 '-1/3-x,-2/3-y,-2/3-z'
 5 '-2/3+x,-1/3+y,-1/3+z'
 6 '-2/3-x,-1/3-y,-1/3-z'
loop_
_atom_site_label
_atom_site_type_symbol
_atom_site_fract_x
_atom_site_fract_y
_atom_site_fract_z
C1    C     0.93392663973845 0.41141092991228 0.44838074972589 
C2    C     0.58854418006149 0.52249302974480 0.44819941961722 
C3    C     0.47753467025676 0.06609240016578 0.44832226973765 
C4    C     0.90418636001056 0.45208337023130 0.39822421004507 
C5    C     0.54785495997972 0.45211026016097 0.39803555052437 
C6    C     0.54793979020735 0.09581244017973 0.39815546054094 
C7    C     0.83577499986575 0.43696919988760 0.45387254973259 
C8    C     0.56296446988460 0.39884088005837 0.45378270003604 
C9    C     0.60118732998843 0.16419395990389 0.45386869058580 
C10   C     0.79794089030626 0.38069458018830 0.55684059034642 
C11   C     0.61925499979882 0.41727924980892 0.55685051017580 
C12   C     0.58270356018486 0.20201715990534 0.55691746033799 
C13   C     0.82689891998740 0.33782597982503 0.61120446941579 
C14   C     0.66214572023137 0.48907837008080 0.61121140047858 
C15   C     0.51088307991946 0.17307726017456 0.61129717050184 
C16   C     0.89685691986064 0.35401942990052 0.55660353030741 
C17   C     0.64595161013155 0.54281401011922 0.55651900034792 
C18   C     0.45717037019552 0.10315050999471 0.55662823027877 
C19   C     0.92659380016747 0.31202260999212 0.61254446975535 
C20   C     0.68796830982070 0.61452058989125 0.61245879050332 
C21   C     0.38544592013098 0.07342945026442 0.61260105001279 
C22   C     0.88941896983448 0.25691418974192 0.71857518973165 
C23   C     0.74309932996430 0.63245659001835 0.71856800983266 
C24   C     0.36747610011005 0.11058711021713 0.71874225996498 
C25   C     0.82050885006451 0.24097201005160 0.77255824000948 
C26   C     0.75904614997731 0.57951831973231 0.77262940040763 
C27   C     0.42039434006089 0.17946647004816 0.77279185966292 
C28   C     0.78984889012066 0.28022948986966 0.71893737037674 
C29   C     0.71976745999678 0.50962683020437 0.71901914057139 
C30   C     0.49029829995605 0.21011347025786 0.71912922980163 
H1    H     0.98699827004314 0.42358231975977 0.40730473972369 
H2    H     0.57637373013812 0.56337145988065 0.40705067975680 
H3    H     0.43667534005953 0.01304418999887 0.40719170993439 
H4    H     0.93320135006299 0.49613989005740 0.31553852995777 
H5    H     0.50378687992856 0.43707222023477 0.31527274980181 
H6    H     0.56301160014548 0.06680403991696 0.31540524965734 
H7    H     0.81289109992214 0.46949122020983 0.41410030985428 
H8    H     0.53042814983438 0.34345781008885 0.41400622035622 
H9    H     0.65658766012766 0.18706252994202 0.41408365989585 
H10   H     0.74495479004841 0.36870138994055 0.59834139001195 
H11   H     0.63124533014731 0.37630774012220 0.59843201973890 
H12   H     0.62365516011432 0.25498015008998 0.59847438034933 
H13   H     0.97921392022628 0.32375056008730 0.56936972048386 
H14   H     0.67623912992703 0.65538990995342 0.56921643944841 
H15   H     0.34459097011928 0.02083370978544 0.56937134996152 
H16   H     0.91260938993819 0.22476390009962 0.75959758032962 
H17   H     0.77526623974938 0.68777599982946 0.75958469029937 
H18   H     0.31214387001764 0.08740930991782 0.75979422010268 
H19   H     0.79134102994088 0.19725095002246 0.85586053999563 
H20   H     0.80278712016867 0.59407329019192 0.85598748031591 
H21   H     0.40581149001531 0.20862144001350 0.85617654989038 
H22   H     0.73632969996345 0.26693998019546 0.75914168971998 
H23   H     0.73306162021715 0.46942031012614 0.75928605057535 
H24   H     0.53048797992206 0.26360921018633 0.75938442014885 
