data_stdin
_audit_creation_method 'critic2'
_audit_creation_date 2023-8-11
_chemical_formula_sum 'C10 H8'
_cell_formula_units_Z 8
_cell_length_a        15.7859188600
_cell_length_b        11.3592010000
_cell_length_c         8.3942929500
_cell_angle_alpha        90.0000
_cell_angle_beta        90.0002
_cell_angle_gamma        90.0000
_cell_volume          1505.226210
_space_group_crystal_system orthorhombic
_space_group_IT_number 61
_space_group_name_H-M_alt 'Pbca'
_space_group_name_Hall '-P 2ac 2ab'
loop_
_symmetry_equiv_pos_site_id
_symmetry_equiv_pos_as_xyz
 1 'x,y,z'
 2 '-x,-y,-z'
 3 '-x,-1/2+y,-1/2-z'
 4 'x,-1/2-y,-1/2+z'
 5 '-1/2-x,-y,-1/2+z'
 6 '-1/2+x,y,-1/2-z'
 7 '-1/2+x,-1/2-y,-z'
 8 '-1/2-x,-1/2+y,z'
loop_
_atom_site_label
_atom_site_type_symbol
_atom_site_fract_x
_atom_site_fract_y
_atom_site_fract_z
C1    C     0.54094429997625 0.49774208019124 0.69443912030744 
C2    C     0.49299635986198 0.43998926971101 0.80737764998245 
C3    C     0.52047969015543 0.33049282975738 0.86931015978299 
C4    C     0.59481826981714 0.28003523982971 0.81652184989355 
C5    C     0.64599379009582 0.33784580018937 0.70157501043059 
C6    C     0.61846508027875 0.44922514991177 0.63912378002987 
C7    C     0.67040161977482 0.50778815036808 0.52592522991063 
C8    C     0.74681535020912 0.46013767991088 0.47893654034112 
C9    C     0.77380996017561 0.35046780961606 0.54090944962225 
C10   C     0.72431499971269 0.29016059983040 0.64893870985364 
H1    H     0.52005553974901 0.58204610968811 0.64698247057463 
H2    H     0.43417253971312 0.47899945965282 0.84985888991534 
H3    H     0.48334788993862 0.28669884991935 0.96129365040719 
H4    H     0.61629474022356 0.19609758995252 0.86430291978382 
H5    H     0.64917159007590 0.59142885962431 0.47642616991702 
H6    H     0.78630394027346 0.50670242008404 0.39349369000490 
H7    H     0.83378010013787 0.31334042969370 0.50104302955974 
H8    H     0.74429764978057 0.20494737973763 0.69504425981672 
