data_stdin
_audit_creation_method 'critic2'
_audit_creation_date 2023-8-11
_chemical_formula_sum 'C10 H8'
_cell_formula_units_Z 4
_cell_length_a        12.9575500549
_cell_length_b        15.3301339690
_cell_length_c         3.9234554412
_cell_angle_alpha        90.0815
_cell_angle_beta        71.6352
_cell_angle_gamma        90.0163
_cell_volume           739.665364
_space_group_crystal_system triclinic
_space_group_IT_number 1
_space_group_name_H-M_alt 'P1'
_space_group_name_Hall 'P 1'
loop_
_symmetry_equiv_pos_site_id
_symmetry_equiv_pos_as_xyz
 1 'x,y,z'
loop_
_atom_site_label
_atom_site_type_symbol
_atom_site_fract_x
_atom_site_fract_y
_atom_site_fract_z
C1    C     0.56722643022858 0.09897961024728 0.97143997096814 
C2    C     0.43272477019714 0.90096035010899 0.52899506896711 
C3    C     0.93270420978006 0.59900461992986 0.52835857065399 
C4    C     0.06723917978017 0.40106076969396 0.97200488005989 
C5    C     0.54261173036672 0.18663755028729 0.00617527946060 
C6    C     0.45730481035700 0.81329511021932 0.49452646960568 
C7    C     0.95747943035666 0.68662035994369 0.49340906878782 
C8    C     0.04244043015277 0.31344922017829 0.00710698893033 
C9    C     0.61712329967263 0.24683939002483 0.07055876070148 
C10   C     0.38276618011809 0.75309553030768 0.43026945879818 
C11   C     0.88307359034014 0.74681923000656 0.42886304002601 
C12   C     0.11682601969432 0.25324405986827 0.07170505928800 
C13   C     0.71516645991719 0.21835880025363 0.09764918097022 
C14   C     0.28476434032631 0.78159641026547 0.40290477961081 
C15   C     0.78500140956902 0.71836310968493 0.40170112103106 
C16   C     0.21493650982473 0.28167687984715 0.09862601102904 
C17   C     0.74288772002059 0.12852134005282 0.06437480986056 
C18   C     0.25711505973392 0.87144886010324 0.43570700116811 
C19   C     0.75715810026225 0.62855946995790 0.43495082892426 
C20   C     0.24284104992407 0.37146642016044 0.06501853924940 
C21   C     0.66712854022528 0.06743861010877 0.99948410098716 
C22   C     0.33286408979735 0.93252000984632 0.50066471987920 
C23   C     0.83277569963881 0.56749103986742 0.50018230057324 
C24   C     0.16720514981830 0.43255348020918 0.99993395131565 
C25   C     0.69465082016440 0.97755118026632 0.96520467037042 
C26   C     0.30539243026649 0.02242445996859 0.53460963900356 
C27   C     0.80511435010176 0.47763753984935 0.53451219047942 
C28   C     0.19490858989322 0.52239281994094 0.96538753065538 
C29   C     0.79217016042155 0.94902549017949 0.99599005928550 
C30   C     0.20792630993698 0.05095775020391 0.50343907088116 
C31   C     0.70758477980157 0.44914994014561 0.50349050005273 
C32   C     0.29248627989060 0.55086978972160 0.99607624066933 
C33   C     0.86642285005669 0.00905951977682 0.06308062066878 
C34   C     0.13369948002271 0.99093080028552 0.43612070997173 
C35   C     0.63348129012218 0.50917484001445 0.43594654088612 
C36   C     0.36662265999707 0.49083197022052 0.06331642875135 
C37   C     0.84236118968105 0.09685274020837 0.09612070055151 
C38   C     0.15772798029388 0.90313349012655 0.40335336021460 
C39   C     0.65769622004120 0.59692333011196 0.40277229030723 
C40   C     0.34238399969500 0.40308465016701 0.09663802976395 
H1    H     0.50977524010912 0.05262154983898 0.92267605888126 
H2    H     0.49017553988249 0.94731219979933 0.57782592989699 
H3    H     0.99005825994902 0.55266169986108 0.57743163894944 
H4    H     0.00987987990952 0.44741524017912 0.92305965028682 
H5    H     0.46602767980335 0.20977039022797 0.97995979133859 
H6    H     0.53388107027454 0.79016403016245 0.52081870876268 
H7    H     0.03411381972793 0.70971464006571 0.51953804105176 
H8    H     0.96579928010200 0.29035310021419 0.98104641922418 
H9    H     0.59682852038780 0.31598488969819 0.09905932977902 
H10   H     0.40291910985502 0.68393426031341 0.40209741001297 
H11   H     0.90338397000812 0.81594005983903 0.40028275117073 
H12   H     0.09638477010245 0.18413635024245 0.10050532939203 
H13   H     0.77229327047389 0.26467951988336 0.14951951891489 
H14   H     0.22760895990782 0.73526993000572 0.35124718112371 
H15   H     0.72794714029572 0.76467705985932 0.34977834914103 
H16   H     0.27196979983132 0.23536589006654 0.15069802896384 
H17   H     0.63745285018511 0.93136433021343 0.91303653990954 
H18   H     0.36260950019027 0.06860715027813 0.58667397095773 
H19   H     0.86223885992174 0.43145867973031 0.58674165095353 
H20   H     0.13779898951729 0.56858013984272 0.91310701127518 
H21   H     0.81254709031802 0.87996669013329 0.96712092938771 
H22   H     0.18758156007928 0.12002835990637 0.53209525008030 
H23   H     0.68709046001236 0.38012017974619 0.53242116056106 
H24   H     0.31300289026268 0.61988980970106 0.96703590946522 
H25   H     0.94293599023770 0.98541552028504 0.08781334994372 
H26   H     0.05724662039018 0.01457861014553 0.41090662927221 
H27   H     0.55697834981935 0.48555284031385 0.41087067974727 
H28   H     0.44317978011281 0.51444731024721 0.08796897907343 
H29   H     0.89879841020180 0.14301825022363 0.15300750971588 
H30   H     0.10135155969732 0.85697379967816 0.34607258048436 
H31   H     0.60143504001650 0.64307498023838 0.34519983003666 
H32   H     0.39871212007271 0.35692196976477 0.15375484021326 
