data_stdin
_audit_creation_method 'critic2'
_audit_creation_date 2023-8-11
_chemical_formula_sum 'C10 H8'
_cell_formula_units_Z 4
_cell_length_a        27.3014735618
_cell_length_b         3.9301450877
_cell_length_c         8.0640896503
_cell_angle_alpha        90.0034
_cell_angle_beta       119.6243
_cell_angle_gamma        89.9970
_cell_volume           752.163606
_space_group_crystal_system monoclinic
_space_group_IT_number 5
_space_group_name_H-M_alt 'C2'
_space_group_name_Hall 'C 2y'
loop_
_symmetry_equiv_pos_site_id
_symmetry_equiv_pos_as_xyz
 1 'x,y,z'
 2 '-1/2-x,-1/2+y,-z'
 3 '-1/2+x,-1/2+y,z'
 4 '-x,y,-z'
loop_
_atom_site_label
_atom_site_type_symbol
_atom_site_fract_x
_atom_site_fract_y
_atom_site_fract_z
C1    C     0.42377117001787 0.02011577883690 0.62284154934973 
C2    C     0.39994440006960 0.05825731000461 0.73771793067677 
C3    C     0.34472712990038 0.93820259091572 0.67620134018554 
C4    C     0.31438315003014 0.78013304987913 0.50168033986754 
C5    C     0.33787847999762 0.73390404112727 0.38081380949111 
C6    C     0.39380119018860 0.85681706036597 0.44277927065364 
C7    C     0.41718750002559 0.81079738043473 0.32163749043887 
C8    C     0.38709394013120 0.65099832909361 0.14764641014079 
C9    C     0.33193075005948 0.53079735110059 0.08650074041661 
C10   C     0.30800629993359 0.56983013966064 0.20105236066085 
H1    H     0.46587001999417 0.11863555091453 0.66843884020494 
H2    H     0.42328273007014 0.18516590917985 0.87523808956414 
H3    H     0.32647900983243 0.96985655892083 0.76858444928815 
H4    H     0.27192949014361 0.68691985959622 0.45488953035073 
H5    H     0.45947013015895 0.90547241913289 0.36793238051223 
H6    H     0.40558282983164 0.61836265999979 0.05605630973018 
H7    H     0.30848135000292 0.40431119962185 0.94895315028625 
H8    H     0.26581693993471 0.47210994029859 0.15439417019574 
