data_stdin
_audit_creation_method 'critic2'
_audit_creation_date 2023-8-11
_chemical_formula_sum 'C10 H8'
_cell_formula_units_Z 8
_cell_length_a        27.4934144820
_cell_length_b         3.8889752366
_cell_length_c        14.4662524015
_cell_angle_alpha        90.0322
_cell_angle_beta        71.8735
_cell_angle_gamma        90.0482
_cell_volume          1469.986185
_space_group_crystal_system triclinic
_space_group_IT_number 2
_space_group_name_H-M_alt 'P-1'
_space_group_name_Hall '-P 1'
loop_
_symmetry_equiv_pos_site_id
_symmetry_equiv_pos_as_xyz
 1 'x,y,z'
 2 '-x,-y,-z'
 3 '-1/2+x,-1/2+y,z'
 4 '-1/2-x,-1/2-y,-z'
loop_
_atom_site_label
_atom_site_type_symbol
_atom_site_fract_x
_atom_site_fract_y
_atom_site_fract_z
C1    C     0.06506498009105 0.15215329882008 0.77280839967805 
C2    C     0.93490936010721 0.15325798006478 0.72715213029656 
C3    C     0.04285093003430 0.17940378048119 0.87206130990041 
C4    C     0.95712926017239 0.18015030064769 0.62789627989690 
C5    C     0.07037643993595 0.32648367948217 0.93021409988330 
C6    C     0.92961831983686 0.32667601035325 0.56972091009911 
C7    C     0.11958847001761 0.44433563994781 0.88802311989422 
C8    C     0.88041774992550 0.44437456047851 0.61189420021269 
C9    C     0.14328521994225 0.42462845904962 0.78599313011193 
C10   C     0.85671561979905 0.42502041998730 0.71392836023170 
C11   C     0.11540561999569 0.27511900954621 0.72703619032628 
C12   C     0.88457745010893 0.27601914017608 0.77290399981381 
C13   C     0.13905951014031 0.25659440017856 0.62492478965978 
C14   C     0.86091668998766 0.25774674896588 0.87501500016518 
C15   C     0.18777603007583 0.38345174910815 0.58279938993077 
C16   C     0.81220711018646 0.38434733955415 0.91712702981266 
C17   C     0.21516707988073 0.53238414028718 0.64091370022082 
C18   C     0.78483415979388 0.53280178963773 0.85899514024872 
C19   C     0.19342392009420 0.55139369901284 0.74041479001636 
C20   C     0.80658672995748 0.55158928103691 0.75949377999044 
H1    H     0.04433115987761 0.03432126076990 0.72790707973213 
H2    H     0.95563198984079 0.03587633911320 0.77207288014269 
H3    H     0.00407439997759 0.08581351931651 0.90633723013816 
H4    H     0.99589751989417 0.08668865036416 0.59363635987117 
H5    H     0.05239616989577 0.34914146123278 0.00854346994423 
H6    H     0.94760276979810 0.34903373096411 0.49138761024074 
H7    H     0.14078364007969 0.55836501904599 0.93254440010102 
H8    H     0.85923612000683 0.55797957922789 0.56735202032325 
H9    H     0.11814595989849 0.13736933014448 0.58043591993499 
H10   H     0.88181949011248 0.13887250014490 0.91950866001118 
H11   H     0.20569510987966 0.36835357038643 0.50436092024793 
H12   H     0.79428052000583 0.36942298947481 0.99556510001403 
H13   H     0.25350053988961 0.63409916953478 0.60665150004826 
H14   H     0.74650509002568 0.63430608103545 0.89324396981371 
H15   H     0.21446584009479 0.66745249114198 0.78504625027088 
H16   H     0.78555769000942 0.66730679922274 0.71485409032118 
