data_stdin
_audit_creation_method 'critic2'
_audit_creation_date 2023-8-11
_chemical_formula_sum 'C10 H8'
_cell_formula_units_Z 8
_cell_length_a        14.4325492203
_cell_length_b         6.1378977906
_cell_length_c        16.2199721837
_cell_angle_alpha        89.9990
_cell_angle_beta        93.2780
_cell_angle_gamma        89.9997
_cell_volume          1434.503647
_space_group_crystal_system monoclinic
_space_group_IT_number 15
_space_group_name_H-M_alt 'C2/c'
_space_group_name_Hall '-C 2yc'
loop_
_symmetry_equiv_pos_site_id
_symmetry_equiv_pos_as_xyz
 1 'x,y,z'
 2 '-1/2-x,-1/2-y,-z'
 3 '-1/2-x,-1/2+y,-1/2-z'
 4 'x,-y,-1/2+z'
 5 '-1/2+x,-1/2+y,z'
 6 '-x,-y,-z'
 7 '-x,y,-1/2-z'
 8 '-1/2+x,-1/2-y,-1/2+z'
loop_
_atom_site_label
_atom_site_type_symbol
_atom_site_fract_x
_atom_site_fract_y
_atom_site_fract_z
C1    C     0.27102843019645 0.46815472947863 0.82004124982583 
C2    C     0.36411471987521 0.49085870987033 0.80674060999803 
C3    C     0.41278684029290 0.68038154008937 0.83383684012031 
C4    C     0.36751900003191 0.84484433989092 0.87324797986402 
C5    C     0.27189638981798 0.82653213943415 0.88791597025990 
C6    C     0.22275115014486 0.63366501021028 0.86112858030899 
C7    C     0.12698561018981 0.61570271945406 0.87588304991732 
C8    C     0.08172199004403 0.78120391080043 0.91470224987787 
C9    C     0.13017000998237 0.97190230984491 0.94066416985389 
C10   C     0.22327243975229 0.99324966971614 0.92785959989477 
H1    H     0.23345230026239 0.32304530012376 0.79870956023755 
H2    H     0.39998383991392 0.36349134027897 0.77435100981602 
H3    H     0.48637872998773 0.69472514011849 0.82336765006977 
H4    H     0.40446664970322 0.99159088025921 0.89379934978271 
H5    H     0.09007395981638 0.46872392930981 0.85545605026761 
H6    H     0.00813917027383 0.76712312951377 0.92522457979576 
H7    H     0.09349682977329 0.10124250932736 0.97119949987237 
H8    H     0.26102663975625 0.13927475046967 0.94781911007690 
