data_stdin
_audit_creation_method 'critic2'
_audit_creation_date 2023-8-11
_chemical_formula_sum 'C10 H8'
_cell_formula_units_Z 8
_cell_length_a         8.7111790963
_cell_length_b         6.1719185000
_cell_length_c        31.1752329654
_cell_angle_alpha        90.0000
_cell_angle_beta        64.5001
_cell_angle_gamma        90.0000
_cell_volume          1512.848261
_space_group_crystal_system monoclinic
_space_group_IT_number 12
_space_group_name_H-M_alt 'C2/m'
_space_group_name_Hall '-C 2y'
loop_
_symmetry_equiv_pos_site_id
_symmetry_equiv_pos_as_xyz
 1 'x,y,z'
 2 '-3/4-x,-1/2-y,-1/4-z'
 3 '-1/4-x,-1/2+y,-1/4-z'
 4 'x,-1/2-y,z'
 5 '-1/4+x,y,-1/4+z'
 6 '-x,-1/2-y,-1/2-z'
 7 '-1/2-x,-1/2+y,-1/2-z'
 8 '-1/4+x,-1/2-y,-1/4+z'
 9 '-1/2+x,y,-1/2+z'
 10 '-1/4-x,-1/2-y,-3/4-z'
 11 '-3/4-x,-1/2+y,-3/4-z'
 12 '-1/2+x,-1/2-y,-1/2+z'
 13 '-3/4+x,y,-3/4+z'
 14 '-1/2-x,-1/2-y,-z'
 15 '-x,-1/2+y,-z'
 16 '-3/4+x,-1/2-y,-3/4+z'
 17 '-1/2+x,-1/2+y,z'
 18 '-1/4-x,-y,-1/4-z'
 19 '-3/4-x,y,-1/4-z'
 20 '-1/2+x,-y,z'
 21 '-3/4+x,-1/2+y,-1/4+z'
 22 '-1/2-x,-y,-1/2-z'
 23 '-x,y,-1/2-z'
 24 '-3/4+x,-y,-1/4+z'
 25 'x,-1/2+y,-1/2+z'
 26 '-3/4-x,-y,-3/4-z'
 27 '-1/4-x,y,-3/4-z'
 28 'x,-y,-1/2+z'
 29 '-1/4+x,-1/2+y,-3/4+z'
 30 '-x,-y,-z'
 31 '-1/2-x,y,-z'
 32 '-1/4+x,-y,-3/4+z'
loop_
_atom_site_label
_atom_site_type_symbol
_atom_site_fract_x
_atom_site_fract_y
_atom_site_fract_z
C1    C     0.06482580059218 0.74987638932692 0.13855041987727 
C2    C     0.98776784979169 0.74979634938472 0.18753406005664 
C3    C     0.80820172005941 0.74989080947845 0.21253925986597 
C4    C     0.70865452051033 0.75002329016496 0.18806774003483 
C5    C     0.78403365970376 0.75008121056686 0.13762620995714 
H1    H     0.20290751975852 0.74981951074046 0.11928407005976 
H2    H     0.06559901072062 0.74984677940903 0.20703440984096 
H3    H     0.74896296958661 0.75016617928445 0.25125161010647 
H4    H     0.57044601025370 0.75006428066087 0.20700117004107 
