data_stdin
_audit_creation_method 'critic2'
_audit_creation_date 2023-8-11
_chemical_formula_sum 'C10 H8'
_cell_formula_units_Z 4
_cell_length_a        15.2113222304
_cell_length_b         5.6343961300
_cell_length_c         8.2445404802
_cell_angle_alpha        89.9999
_cell_angle_beta        90.0004
_cell_angle_gamma        90.0002
_cell_volume           706.611658
_space_group_crystal_system orthorhombic
_space_group_IT_number 29
_space_group_name_H-M_alt 'Pca2_1'
_space_group_name_Hall 'P 2c -2ac'
loop_
_symmetry_equiv_pos_site_id
_symmetry_equiv_pos_as_xyz
 1 'x,y,z'
 2 '-x,-y,-1/2+z'
 3 '-1/2-x,y,-1/2+z'
 4 '-1/2+x,-y,z'
loop_
_atom_site_label
_atom_site_type_symbol
_atom_site_fract_x
_atom_site_fract_y
_atom_site_fract_z
C1    C     0.82360678031230 0.51531328969847 0.00410597050684 
C2    C     0.73767733992100 0.59160076023761 0.99545038975747 
C3    C     0.71216212996738 0.80754314998544 0.06936110052229 
C4    C     0.77306131010406 0.94325239013573 0.15128714023743 
C5    C     0.86234239999046 0.87098269967088 0.16151901999109 
C6    C     0.88832201985896 0.65275202948474 0.08534661978076 
C7    C     0.97774420018976 0.58131546063171 0.09390237972334 
C8    C     0.03855059980290 0.71708298912201 0.17634721953533 
C9    C     0.01276390032354 0.93007676932796 0.25421233011868 
C10   C     0.92659011984087 0.00557823975854 0.24599713001312 
H1    H     0.84308821013963 0.34751428913812 0.94949422030498 
H2    H     0.68902863967299 0.48696236044401 0.93000852018117 
H3    H     0.64413941997655 0.86600542077275 0.06072102951569 
H4    H     0.75368593026910 0.10875725049701 0.20955901027581 
H5    H     0.99736637018788 0.41677721975525 0.03463105944133 
H6    H     0.10671582976059 0.65869480069073 0.18200816036629 
H7    H     0.06084909971454 0.03548121930910 0.32060224959527 
H8    H     0.90711035985261 0.17059772042245 0.30471318056401 
