data_stdin
_audit_creation_method 'critic2'
_audit_creation_date 2023-8-11
_chemical_formula_sum 'C10 H8'
_cell_formula_units_Z 8
_cell_length_a         5.3513660002
_cell_length_b         5.3514164004
_cell_length_c        53.6854100259
_cell_angle_alpha        90.0021
_cell_angle_beta        90.0007
_cell_angle_gamma        89.9995
_cell_volume          1537.409904
_space_group_crystal_system tetragonal
_space_group_IT_number 96
_space_group_name_H-M_alt 'P4_32_12'
_space_group_name_Hall 'P 4nw 2abw'
loop_
_symmetry_equiv_pos_site_id
_symmetry_equiv_pos_as_xyz
 1 'x,y,z'
 2 '-1/2-y,-1/2+x,-1/4+z'
 3 '-x,-y,-1/2+z'
 4 '-1/2+y,-1/2-x,-3/4+z'
 5 '-1/2+x,-1/2-y,-3/4-z'
 6 '-y,-x,-1/2-z'
 7 '-1/2-x,-1/2+y,-1/4-z'
 8 'y,x,-z'
loop_
_atom_site_label
_atom_site_type_symbol
_atom_site_fract_x
_atom_site_fract_y
_atom_site_fract_z
C1    C     0.09752877967733 0.04384188079326 0.54805057006628 
C2    C     0.27339301922093 0.05389849091232 0.52931363995367 
C3    C     0.45881294039528 0.24267493952191 0.52933762991771 
C4    C     0.46471331070716 0.41897847060005 0.54804731998925 
C5    C     0.28598554078388 0.41422550927973 0.56758577994512 
C6    C     0.09892058943844 0.22201375962311 0.56764984996033 
C7    C     0.92199152010446 0.21606421074085 0.58733884997736 
C8    C     0.92725700912295 0.39281808003562 0.60602591005542 
C9    C     0.10985185052241 0.58423588953090 0.60576883002711 
C10   C     0.28574969958547 0.59387329027823 0.58702967997084 
H1    H     0.95570967088490 0.89780867938357 0.54816457992401 
H2    H     0.27049078017671 0.91639013037949 0.51437789001741 
H3    H     0.59664567940243 0.24797442919340 0.51443909002229 
H4    H     0.60728948041129 0.56428362023789 0.54815938996219 
H5    H     0.78137364966857 0.06890582051398 0.58747486000918 
H6    H     0.79100970914576 0.38342865073212 0.62106182007801 
H7    H     0.11065900907141 0.72438299942421 0.62045704006592 
H8    H     0.42613421978148 0.74126995947526 0.58669472003774 
