data_stdin
_audit_creation_method 'critic2'
_audit_creation_date 2023-8-11
_chemical_formula_sum 'C10 H8'
_cell_formula_units_Z 8
_cell_length_a         7.0442361201
_cell_length_b        26.4093784538
_cell_length_c         7.9785586578
_cell_angle_alpha        89.9988
_cell_angle_beta        89.9999
_cell_angle_gamma        89.9951
_cell_volume          1484.282359
_space_group_crystal_system orthorhombic
_space_group_IT_number 45
_space_group_name_H-M_alt 'Iba2'
_space_group_name_Hall 'I 2 -2c'
loop_
_symmetry_equiv_pos_site_id
_symmetry_equiv_pos_as_xyz
 1 'x,y,z'
 2 '-x,-y,z'
 3 '-x,y,-1/2+z'
 4 'x,-y,-1/2+z'
 5 '-1/2+x,-1/2+y,-1/2+z'
 6 '-1/2-x,-1/2-y,-1/2+z'
 7 '-1/2-x,-1/2+y,z'
 8 '-1/2+x,-1/2-y,z'
loop_
_atom_site_label
_atom_site_type_symbol
_atom_site_fract_x
_atom_site_fract_y
_atom_site_fract_z
C1    C     0.61365574947063 0.38638689991736 0.46645282947593 
C2    C     0.64067332955021 0.43753325983527 0.49217318049942 
C3    C     0.74913918968822 0.46637611006724 0.37706726953234 
C4    C     0.83074240001554 0.44333212984050 0.23952755052312 
C5    C     0.80479917969951 0.39082781016166 0.20905441039523 
C6    C     0.69261675036797 0.36181912996383 0.32445954966346 
C7    C     0.66375181024742 0.30948164996701 0.29225520941727 
C8    C     0.74352455070036 0.28662949997038 0.15337902982788 
C9    C     0.85490932982340 0.31537517982247 0.04013042008735 
C10   C     0.88441025050555 0.36634045006988 0.06732170013086 
H1    H     0.53159903940287 0.36409714981313 0.55525540965506 
H2    H     0.57856223999446 0.45574793994544 0.60169954995620 
H3    H     0.76756887049731 0.50687794986931 0.39717818044385 
H4    H     0.91646605032298 0.46498173005517 0.15141901988484 
H5    H     0.57528800053540 0.28795879994690 0.37870946001785 
H6    H     0.71959849018826 0.24647871005174 0.12990164977409 
H7    H     0.91671969941862 0.29748521018196 0.92992945961600 
H8    H     0.96788837954333 0.38854576016372 0.97925076958606 
