data_stdin
_audit_creation_method 'critic2'
_audit_creation_date 2023-8-11
_chemical_formula_sum 'C10 H8'
_cell_formula_units_Z 16
_cell_length_a        32.5709445124
_cell_length_b        23.8175912264
_cell_length_c         3.8522436023
_cell_angle_alpha        90.0068
_cell_angle_beta        90.1174
_cell_angle_gamma        90.0000
_cell_volume          2988.415753
_space_group_crystal_system monoclinic
_space_group_IT_number 9
_space_group_name_H-M_alt 'Cc'
_space_group_name_Hall 'C -2yc'
loop_
_symmetry_equiv_pos_site_id
_symmetry_equiv_pos_as_xyz
 1 'x,y,z'
 2 '-3/4+x,-1/4-y,-1/4+z'
 3 '-1/2+x,y,-1/2+z'
 4 '-1/4+x,-1/4-y,-3/4+z'
 5 'x,-1/2+y,-1/2+z'
 6 '-3/4+x,-3/4-y,-3/4+z'
 7 '-1/2+x,-1/2+y,z'
 8 '-1/4+x,-3/4-y,-1/4+z'
loop_
_atom_site_label
_atom_site_type_symbol
_atom_site_fract_x
_atom_site_fract_y
_atom_site_fract_z
C1    C     0.31658813086362 0.20832845461087 0.51497601213204 
C2    C     0.68345216669857 0.79160263200888 0.51473525060940 
C3    C     0.28017826926442 0.17893008682112 0.52510656755496 
C4    C     0.71988995936397 0.82095220837464 0.52429886081983 
C5    C     0.27920087622398 0.12123005233158 0.43905756826841 
C6    C     0.72085532940602 0.87863899404324 0.43801643669634 
C7    C     0.31468195252647 0.09386152602924 0.34285164168835 
C8    C     0.68533369456845 0.90604468222468 0.34210180080209 
C9    C     0.35279799049633 0.12269394738120 0.33458288829462 
C10   C     0.64719340962093 0.87725972246093 0.33429639236434 
C11   C     0.35377058837671 0.18123262973743 0.42219977522356 
C12   C     0.64623250204171 0.81873682929228 0.42220455247414 
C13   C     0.39188466457129 0.21003008692654 0.41279757828848 
C14   C     0.60809297900650 0.78998853883627 0.41326142839162 
C15   C     0.42745815291936 0.18243609976653 0.32158895776023 
C16   C     0.57248393713665 0.81761334260699 0.32222029002265 
C17   C     0.42660375435618 0.12458409032970 0.23897718750238 
C18   C     0.57332912970126 0.87545033074982 0.23932136980806 
C19   C     0.39005343139375 0.09547396537201 0.24531576614302 
C20   C     0.60990361734810 0.90451272028341 0.24519835944247 
H1    H     0.31733120009740 0.25293661865576 0.57743901437939 
H2    H     0.68271506257928 0.74700557392306 0.57742896832955 
H3    H     0.25189948270689 0.20016827735031 0.59834089878940 
H4    H     0.74820131210498 0.79968205114143 0.59722822678744 
H5    H     0.25014068531604 0.09868994067566 0.44802678214897 
H6    H     0.74993751771688 0.90113920582935 0.44659859179565 
H7    H     0.31399438738325 0.04959417024734 0.27142178264763 
H8    H     0.68600742689805 0.95030264172880 0.27051486957633 
H9    H     0.39263286901589 0.25448693129918 0.47869084738840 
H10   H     0.60735471118039 0.74554258513079 0.47933530332330 
H11   H     0.45648796464543 0.20516845183599 0.31374987176993 
H12   H     0.54343457045019 0.79491550925940 0.31470872403535 
H13   H     0.45505028230956 0.10314901163648 0.17284360360127 
H14   H     0.54485775715348 0.89691203264487 0.17333664065763 
H15   H     0.38928796167410 0.05083127506333 0.18468964936987 
H16   H     0.61066631882421 0.94914238183155 0.18430384445233 
