data_stdin
_audit_creation_method 'critic2'
_audit_creation_date 2023-8-11
_chemical_formula_sum 'C10 H8'
_cell_formula_units_Z 9
_cell_length_a        20.3799924948
_cell_length_b        20.3985763619
_cell_length_c         4.7812024202
_cell_angle_alpha        90.0201
_cell_angle_beta        90.0000
_cell_angle_gamma       120.0305
_cell_volume          1720.830783
_space_group_crystal_system triclinic
_space_group_IT_number 1
_space_group_name_H-M_alt 'P1'
_space_group_name_Hall 'P 1'
loop_
_symmetry_equiv_pos_site_id
_symmetry_equiv_pos_as_xyz
 1 'x,y,z'
 2 '-2/3+x,-1/3+y,-1/3+z'
 3 '-1/3+x,-2/3+y,-2/3+z'
loop_
_atom_site_label
_atom_site_type_symbol
_atom_site_fract_x
_atom_site_fract_y
_atom_site_fract_z
C1    C     0.97398393030460 0.84672533685742 0.29391237861012 
C2    C     0.15335046559709 0.12738284073852 0.29392651679170 
C3    C     0.87246615236636 0.02603115809908 0.29315634654145 
C4    C     0.94879537731126 0.87567513224229 0.50140283432881 
C5    C     0.12428508777281 0.07323439704550 0.50125367186906 
C6    C     0.92667584544219 0.05111304406111 0.50055515373723 
C7    C     0.87273383679840 0.83487502605408 0.59444837570068 
C8    C     0.16492851326899 0.03783754965276 0.59388415708495 
C9    C     0.96218733623150 0.12714380972563 0.59346108941696 
C10   C     0.82298488371062 0.76570065061738 0.47722642571327 
C11   C     0.23406480373885 0.05714507264186 0.47642335083152 
C12   C     0.94293697810155 0.17696510075668 0.47619689481709 
C13   C     0.84734446252101 0.73376373842986 0.26606877746153 
C14   C     0.26611960115712 0.11344896484611 0.26542440450845 
C15   C     0.88657611342509 0.15271760102747 0.26511157707073 
C16   C     0.92463400506232 0.77493622128936 0.17334755218814 
C17   C     0.22510704410307 0.14970111794602 0.17312451656901 
C18   C     0.85020919844144 0.07546268927805 0.17252773955002 
C19   C     0.94936911581730 0.74263102465070 0.96487869632592 
C20   C     0.25752943057366 0.20674258115735 0.96479531665386 
C21   C     0.79310748437460 0.05083677860719 0.96412394150858 
C22   C     0.90000820129342 0.67298127975104 0.85052473927121 
C23   C     0.32713520582951 0.22689903246806 0.85014846554881 
C24   C     0.77299296354948 0.10026860116676 0.84970142400866 
C25   C     0.82364270692826 0.63243956282890 0.94101572934060 
C26   C     0.36752156880468 0.19094532759723 0.94023301581898 
C27   C     0.80905813464615 0.17659920977209 0.94006519547284 
C28   C     0.79801094376031 0.66197816795872 0.14508652245901 
C29   C     0.33786865833031 0.13577560440765 0.14417677693967 
C30   C     0.86429880208137 0.20212765954068 0.14405725701896 
H1    H     0.03242561973339 0.87857629822093 0.22067367316224 
H2    H     0.12161861556428 0.15407647703531 0.22099154898018 
H3    H     0.84568184759980 0.96761527633645 0.21998580717572 
H4    H     0.98797696847957 0.92986087953835 0.59668129563090 
H5    H     0.07012289813402 0.05831202425552 0.59666468102537 
H6    H     0.94156378381205 0.01188187593281 0.59577694746862 
H7    H     0.85416567371118 0.85786312707432 0.76257393461504 
H8    H     0.14184499064540 0.99625169099721 0.76182167123791 
H9    H     0.00382620665572 0.14564774573404 0.76143131673731 
H10   H     0.76443280506723 0.73374585927025 0.54888272784484 
H11   H     0.26589862506212 0.03043934255690 0.54774093591204 
H12   H     0.96973143750406 0.23549401391799 0.54775637956109 
H13   H     0.00800693500076 0.77402372733659 0.89426470662107 
H14   H     0.22625354927657 0.23408871719920 0.89451697259362 
H15   H     0.76567751863784 0.99222392405757 0.89362078103494 
H16   H     0.91965055682105 0.64901028285883 0.68975673571691 
H17   H     0.35119210388342 0.27051426897704 0.68948522812941 
H18   H     0.72931105763495 0.08070135665647 0.68905234049066 
H19   H     0.78505762656560 0.57763263776147 0.84837353025510 
H20   H     0.42229923597324 0.20706225976157 0.84741427752287 
H21   H     0.79295223228283 0.21523477076552 0.84744857942343 
H22   H     0.73949313870311 0.63037004772117 0.21827548410655 
H23   H     0.36935792822590 0.10876149960590 0.21702707978972 
H24   H     0.89139111668825 0.26062251314203 0.21713509673503 
