data_stdin
_audit_creation_method 'critic2'
_audit_creation_date 2023-8-11
_chemical_formula_sum 'C10 H8'
_cell_formula_units_Z 4
_cell_length_a        12.7100230501
_cell_length_b        11.7649138900
_cell_length_c         4.7628557015
_cell_angle_alpha        90.0005
_cell_angle_beta        89.9984
_cell_angle_gamma        90.0002
_cell_volume           712.200895
_space_group_crystal_system orthorhombic
_space_group_IT_number 19
_space_group_name_H-M_alt 'P2_12_12_1'
_space_group_name_Hall 'P 2ac 2ab'
loop_
_symmetry_equiv_pos_site_id
_symmetry_equiv_pos_as_xyz
 1 'x,y,z'
 2 '-1/2+x,-1/2-y,-z'
 3 '-1/2-x,-y,-1/2+z'
 4 '-x,-1/2+y,-1/2-z'
loop_
_atom_site_label
_atom_site_type_symbol
_atom_site_fract_x
_atom_site_fract_y
_atom_site_fract_z
C1    C     0.02576538033651 0.49857912035818 0.26743917959943 
C2    C     0.92468599998972 0.49297845002393 0.16326806066948 
C3    C     0.84596646027500 0.56708419042452 0.26658909030228 
C4    C     0.86986997990879 0.64606643979258 0.47086701009596 
C5    C     0.97343263034634 0.65504316959097 0.57976249895874 
C6    C     0.05303443999470 0.57898205027444 0.47747208104748 
C7    C     0.15634751032584 0.58749124033802 0.58903693012757 
C8    C     0.17985400033331 0.66705732018155 0.79236425974867 
C9    C     0.10158278038301 0.74245354985763 0.89181840922122 
C10   C     0.00069704030344 0.73655069967795 0.78702208921300 
H1    H     0.08615233027058 0.44163038999214 0.18612379102199 
H2    H     0.90565258989053 0.43171615039843 0.99955923040882 
H3    H     0.76643109027203 0.56133278984276 0.18265264098912 
H4    H     0.80921336007303 0.70303499014152 0.55071974988246 
H5    H     0.21703365012180 0.53018813961975 0.51078825065066 
H6    H     0.25924409006498 0.67304608041495 0.87722143013019 
H7    H     0.12073730963643 0.80480655022182 0.05261304079432 
H8    H     0.94040304019560 0.79453096998425 0.86424270025138 
