data_stdin
_audit_creation_method 'critic2'
_audit_creation_date 2023-8-11
_chemical_formula_sum 'C10 H8'
_cell_formula_units_Z 8
_cell_length_a        14.7781472901
_cell_length_b         5.9069714084
_cell_length_c        17.0199422500
_cell_angle_alpha        89.9970
_cell_angle_beta        89.9999
_cell_angle_gamma        89.9997
_cell_volume          1485.740428
_space_group_crystal_system orthorhombic
_space_group_IT_number 61
_space_group_name_H-M_alt 'Pbca'
_space_group_name_Hall '-P 2ac 2ab'
loop_
_symmetry_equiv_pos_site_id
_symmetry_equiv_pos_as_xyz
 1 'x,y,z'
 2 '-x,-y,-z'
 3 '-1/2+x,-1/2-y,-z'
 4 '-1/2-x,-1/2+y,z'
 5 '-x,-1/2+y,-1/2-z'
 6 'x,-1/2-y,-1/2+z'
 7 '-1/2-x,-y,-1/2+z'
 8 '-1/2+x,y,-1/2-z'
loop_
_atom_site_label
_atom_site_type_symbol
_atom_site_fract_x
_atom_site_fract_y
_atom_site_fract_z
C1    C     0.02341631969107 0.71780971961774 0.68756626975284 
C2    C     0.11150279969493 0.75359036921628 0.71137629971577 
C3    C     0.15873652019435 0.95031319988176 0.68736916971838 
C4    C     0.11680016978382 0.10957861950728 0.64054592011441 
C5    C     0.02590579006902 0.07901389027156 0.61585289996738 
C6    C     0.97831887996075 0.87870270941935 0.63963839995023 
C7    C     0.88711516974006 0.84895244964928 0.61529401024627 
C8    C     0.84511259032587 0.00906158020114 0.56888865986496 
C9    C     0.89246152001573 0.20558715991243 0.54483841023931 
C10   C     0.98066752014432 0.23997085943899 0.56814059999599 
H1    H     0.98723809032806 0.56635982915948 0.70595182982872 
H2    H     0.14394334976477 0.63164575933287 0.75021018995937 
H3    H     0.22825761979547 0.97629825966303 0.70649071017041 
H4    H     0.15283024005804 0.26159356007667 0.62211519012561 
H5    H     0.85110434986620 0.69714423934786 0.63401201000817 
H6    H     0.77534894969903 0.98425970032957 0.55022329972766 
H7    H     0.85933731004030 0.32785960005719 0.50650491987568 
H8    H     0.01729628022619 0.39112596008746 0.55009743018516 
