data_stdin
_audit_creation_method 'critic2'
_audit_creation_date 2023-8-11
_chemical_formula_sum 'C10 H8'
_cell_formula_units_Z 4
_cell_length_a         7.6453396999
_cell_length_b        13.3342290500
_cell_length_c         7.7844545300
_cell_angle_alpha        90.0000
_cell_angle_beta        72.5823
_cell_angle_gamma        90.0001
_cell_volume           757.196647
_space_group_crystal_system monoclinic
_space_group_IT_number 9
_space_group_name_H-M_alt 'Cc'
_space_group_name_Hall 'C -2yc'
loop_
_symmetry_equiv_pos_site_id
_symmetry_equiv_pos_as_xyz
 1 'x,y,z'
 2 '-1/2+x,-1/2-y,-1/2+z'
 3 '-1/2+x,-1/2+y,z'
 4 'x,-y,-1/2+z'
loop_
_atom_site_label
_atom_site_type_symbol
_atom_site_fract_x
_atom_site_fract_y
_atom_site_fract_z
C1    C     0.00066487483439 0.87691860917986 0.00427815320162 
C2    C     0.81273376270914 0.87889287791885 0.07692676224308 
C3    C     0.69901931525681 0.88031980675990 0.96326674725789 
C4    C     0.77502782705705 0.87866085246205 0.77875012885253 
C5    C     0.96800617244766 0.87644864962414 0.69955958265659 
C6    C     0.08338890953137 0.87638941276990 0.81501341547929 
C7    C     0.27637208387705 0.87854942746530 0.73582646070091 
C8    C     0.35237961936963 0.88030029460109 0.55131473211144 
C9    C     0.23866264994970 0.87901151712730 0.43765041782841 
C10   C     0.05073146081180 0.87706742134516 0.51029325124418 
H1    H     0.08884491649948 0.87732954399225 0.09134650704950 
H2    H     0.75080072544300 0.87976956605054 0.22228429129151 
H3    H     0.55074718554903 0.88211203916394 0.02259375744661 
H4    H     0.68807593569926 0.87955845168304 0.69053766799372 
H5    H     0.36332240663577 0.87934756332757 0.82404298788722 
H6    H     0.50065192066699 0.88206691661638 0.49198365553101 
H7    H     0.30059921723945 0.88004684730142 0.29229644530182 
H8    H     0.96255072826734 0.87758235108468 0.42322682936768 
