data_stdin
_audit_creation_method 'critic2'
_audit_creation_date 2023-8-11
_chemical_formula_sum 'C10 H8'
_cell_formula_units_Z 4
_cell_length_a        16.3693569224
_cell_length_b         7.5669419500
_cell_length_c         5.8740942161
_cell_angle_alpha        90.0000
_cell_angle_beta        90.3187
_cell_angle_gamma        90.0000
_cell_volume           727.589146
_space_group_crystal_system triclinic
_space_group_IT_number 1
_space_group_name_H-M_alt 'P 1'
_space_group_name_Hall 'P 1'
loop_
_symmetry_equiv_pos_site_id
_symmetry_equiv_pos_as_xyz
 1 'x,y,z'
loop_
_atom_site_label
_atom_site_type_symbol
_atom_site_fract_x
_atom_site_fract_y
_atom_site_fract_z
C1    C     0.04166411994406 0.84227359970406 0.02047320955894 
C2    C     0.54166407971669 0.34227356005793 0.02047325972868 
C3    C     0.04166408988184 0.15772647033167 0.52047321964366 
C4    C     0.54166403988008 0.65772640954093 0.52047326980090 
C5    C     0.12180422027745 0.81063353058823 0.96203840985652 
C6    C     0.62180417027569 0.31063346979749 0.96203846001376 
C7    C     0.12180418998973 0.18936663029174 0.46203844069309 
C8    C     0.62180413996926 0.68936652060410 0.46203848063583 
C9    C     0.14084944994548 0.72597222024640 0.75401168962159 
C10   C     0.64084940975550 0.22597213038183 0.75401176022032 
C11   C     0.14084942026238 0.27402798007683 0.25401175026471 
C12   C     0.64084937999759 0.77402785981689 0.25401178000545 
C13   C     0.07928907993014 0.67523227973506 0.60642262045709 
C14   C     0.57928902998137 0.17523218987049 0.60642269955541 
C15   C     0.07928905018354 0.32476787978020 0.10642266970153 
C16   C     0.57928900993746 0.82476777934333 0.10642270965676 
C17   C     0.99615512973473 0.70761390065733 0.66055263032172 
C18   C     0.49615507975167 0.20761383986659 0.66055269069346 
C19   C     0.99615510009961 0.29238615994499 0.16055264008005 
C20   C     0.49615505009784 0.79238610047578 0.16055269023729 
C21   C     0.97687322009947 0.79239477055319 0.87234997973566 
C22   C     0.47687317009771 0.29239472958552 0.87235002989290 
C23   C     0.97687318986556 0.20760525991079 0.37234996990070 
C24   C     0.47687313986380 0.70760520969235 0.37235002005794 
C25   C     0.89373919020730 0.82477295019099 0.92648283933657 
C26   C     0.39373914017125 0.32477293961869 0.92648287076723 
C27   C     0.89373916010394 0.17522701043392 0.42648280023004 
C28   C     0.39373911010218 0.67522698003855 0.42648285038728 
C29   C     0.83217847027551 0.77402993974731 0.77889750992452 
C30   C     0.33217843001072 0.27402993049655 0.77889753966526 
C31   C     0.83217844988336 0.22596998006968 0.27889745943183 
C32   C     0.33217839986290 0.72596996949737 0.27889749937458 
C33   C     0.85122360980471 0.68936710963699 0.57087093938663 
C34   C     0.35122355980295 0.18936706999085 0.57087098954387 
C35   C     0.85122358022739 0.31063284037251 0.07087091017594 
C36   C     0.35122353998131 0.81063282980020 0.07087095013118 
C37   C     0.93136343986873 0.65772223937426 0.51243867082575 
C38   C     0.43136340026784 0.15772217990506 0.51243872950835 
C39   C     0.93136341983768 0.34227778033490 0.01243866067703 
C40   C     0.43136338022120 0.84227773936723 0.01243871084755 
H1    H     0.02742121025087 0.90665014991026 0.18103101999466 
H2    H     0.52742116023041 0.40665011951489 0.18103105993740 
H3    H     0.02742117995139 0.09334989986672 0.68103101069497 
H4    H     0.52742112017524 0.59334984964828 0.68103106083971 
H5    H     0.17037822982074 0.85177590003799 0.07770768956124 
H6    H     0.67037819018556 0.35177584056879 0.07770772951726 
H7    H     0.17037820001459 0.14822429026253 0.57770773019266 
H8    H     0.67037814997541 0.64822417000259 0.57770775992090 
H9    H     0.20446000985409 0.70050217063628 0.71087159924625 
H10   H     0.70445995988974 0.20050205962710 0.71087166983249 
H11   H     0.20445997991159 0.29949810980824 0.21087169079263 
H12   H     0.70445994023899 0.79949794990217 0.21087171031965 
H13   H     0.09336237995091 0.60933500027579 0.44645900065013 
H14   H     0.59336233002084 0.10933489058815 0.44645908996295 
H15   H     0.09336235976859 0.39066519007591 0.94645906930644 
H16   H     0.59336232011781 0.89066508038827 0.94645910075038 
H17   H     0.87966541009042 0.89061124941748 0.08648619964199 
H18   H     0.37966536003255 0.39061125998978 0.08648621915574 
H19   H     0.87966538021909 0.10938868962237 0.58648614964879 
H20   H     0.37966531981334 0.60938866979930 0.58648618957825 
H21   H     0.76856750020186 0.79949042935285 0.82204179962658 
H22   H     0.26856745014710 0.29949045049745 0.82204182084274 
H23   H     0.76856746970669 0.20050943016598 0.32204173013437 
H24   H     0.26856742025972 0.70050943016598 0.32204174964890 
H25   H     0.80264866999410 0.64822352965860 0.45520540039486 
H26   H     0.30264861997363 0.14822350058476 0.45520544033760 
H27   H     0.80264864970660 0.35177638035808 0.95520535969942 
H28   H     0.30264861007142 0.85177638035808 0.95520539965544 
H29   H     0.94560635990981 0.59334599047868 0.35188083997432 
H30   H     0.44560631971984 0.09334592043718 0.35188091057305 
H31   H     0.94560634011599 0.40665404948923 0.85188084921000 
H32   H     0.44560631027390 0.90665400984309 0.85188089939302 
