data_stdin
_audit_creation_method 'critic2'
_audit_creation_date 2023-8-11
_chemical_formula_sum 'C10 H8'
_cell_formula_units_Z 8
_cell_length_a        19.5169501918
_cell_length_b         5.8391865056
_cell_length_c        13.2829551394
_cell_angle_alpha        89.9998
_cell_angle_beta        92.0978
_cell_angle_gamma        90.0046
_cell_volume          1512.752367
_space_group_crystal_system monoclinic
_space_group_IT_number 15
_space_group_name_H-M_alt 'C2/c'
_space_group_name_Hall '-C 2yc'
loop_
_symmetry_equiv_pos_site_id
_symmetry_equiv_pos_as_xyz
 1 'x,y,z'
 2 '-x,-y,-z'
 3 '-x,y,-1/2-z'
 4 'x,-y,-1/2+z'
 5 '-1/2+x,-1/2+y,z'
 6 '-1/2-x,-1/2-y,-z'
 7 '-1/2-x,-1/2+y,-1/2-z'
 8 '-1/2+x,-1/2-y,-1/2+z'
loop_
_atom_site_label
_atom_site_type_symbol
_atom_site_fract_x
_atom_site_fract_y
_atom_site_fract_z
C1    C     0.37662454004510 0.97599948956688 0.81760654992281 
C2    C     0.33326983994645 0.90034182944080 0.89026825986171 
C3    C     0.29975781004550 0.68625912922078 0.87913152005752 
C4    C     0.30952849014475 0.55201937967404 0.79548543996543 
C5    C     0.35420549001683 0.62465161992755 0.71969338982242 
C6    C     0.38861703976369 0.84106165017741 0.73106211980187 
C7    C     0.43404182007031 0.91133907063208 0.65592713988941 
C8    C     0.44536702013022 0.77416193973044 0.57367850994658 
C9    C     0.41121382993076 0.56158574986565 0.56207944962593 
C10   C     0.36647539004377 0.48895796036962 0.63351293966155 
H1    H     0.40216668999236 0.14129705928203 0.82585455003137 
H2    H     0.32525119012327 0.00605490939116 0.95640504973569 
H3    H     0.26634484004149 0.62554759008301 0.93728946022843 
H4    H     0.28342022000033 0.38796064023295 0.78677500975275 
H5    H     0.45985589015409 0.07603612922250 0.66442584994446 
H6    H     0.48088889012128 0.82856692952678 0.51710367028715 
H7    H     0.41996513023850 0.45599975918444 0.49622315031354 
H8    H     0.34030604009804 0.32494225989281 0.62539280989901 
