data_stdin
_audit_creation_method 'critic2'
_audit_creation_date 2023-8-11
_chemical_formula_sum 'C10 H8'
_cell_formula_units_Z 16
_cell_length_a        15.0285010000
_cell_length_b        15.0285153900
_cell_length_c        13.9390526900
_cell_angle_alpha        90.0000
_cell_angle_beta        90.0000
_cell_angle_gamma        89.9997
_cell_volume          3148.219501
_space_group_crystal_system tetragonal
_space_group_IT_number 88
_space_group_name_H-M_alt 'I4_1/a'
_space_group_name_Hall 'I 4bw -1bw'
loop_
_symmetry_equiv_pos_site_id
_symmetry_equiv_pos_as_xyz
 1 'x,y,z'
 2 '-1/4+y,-1/4-x,-1/4+z'
 3 '-1/2-x,-y,-1/2+z'
 4 '-3/4-y,-1/4+x,-1/4+z'
 5 '-x,-y,-z'
 6 '-3/4-y,-3/4+x,-3/4-z'
 7 '-1/2+x,y,-1/2-z'
 8 '-3/4+y,-1/4-x,-1/4-z'
 9 '-1/2+x,-1/2+y,-1/2+z'
 10 '-3/4+y,-3/4-x,-3/4+z'
 11 '-x,-1/2-y,z'
 12 '-1/4-y,-3/4+x,-3/4+z'
 13 '-1/2-x,-1/2-y,-1/2-z'
 14 '-1/4-y,-1/4+x,-1/4-z'
 15 'x,-1/2+y,-z'
 16 '-1/4+y,-3/4-x,-3/4-z'
loop_
_atom_site_label
_atom_site_type_symbol
_atom_site_fract_x
_atom_site_fract_y
_atom_site_fract_z
C1    C     0.12974933979030 0.83537628983529 0.14338412977403 
C2    C     0.05127373999850 0.88083373025742 0.12809966966951 
C3    C     0.04953912029202 0.97499582003511 0.13232333035794 
C4    C     0.12622714983781 0.02190073023197 0.15191793970125 
C5    C     0.20833259019824 0.97719423005602 0.16609817976794 
C6    C     0.21023978002949 0.88187269997596 0.16180391979039 
C7    C     0.29263624981070 0.83724160993019 0.17470470998332 
C8    C     0.36979720017960 0.88457193019581 0.19061695023623 
C9    C     0.36779829023586 0.97862324984761 0.19488342007541 
C10   C     0.28885487025858 0.02378766968744 0.18287732964503 
H1    H     0.13136972973452 0.76288694011037 0.14143592989733 
H2    H     0.99006146978311 0.84457091968931 0.11308599965044 
H3    H     0.98719244989394 0.01017344978578 0.12023487021301 
H4    H     0.12497996978046 0.09431714000547 0.15620394980527 
H5    H     0.29408067969911 0.76488838011369 0.17174295992958 
H6    H     0.43281774031563 0.84982948991660 0.20019109988423 
H7    H     0.42918656981145 0.01493128015408 0.20848667003518 
H8    H     0.28705075993183 0.09610953966845 0.18680389988494 
