data_stdin
_audit_creation_method 'critic2'
_audit_creation_date 2023-8-11
_chemical_formula_sum 'C10 H8'
_cell_formula_units_Z 4
_cell_length_a        15.2087373101
_cell_length_b         5.6308577348
_cell_length_c         8.2491931103
_cell_angle_alpha        90.0001
_cell_angle_beta        90.0005
_cell_angle_gamma        89.9978
_cell_volume           706.446347
_space_group_crystal_system orthorhombic
_space_group_IT_number 29
_space_group_name_H-M_alt 'Pca2_1'
_space_group_name_Hall 'P 2c -2ac'
loop_
_symmetry_equiv_pos_site_id
_symmetry_equiv_pos_as_xyz
 1 'x,y,z'
 2 '-x,-y,-1/2+z'
 3 '-1/2-x,y,-1/2+z'
 4 '-1/2+x,-y,z'
loop_
_atom_site_label
_atom_site_type_symbol
_atom_site_fract_x
_atom_site_fract_y
_atom_site_fract_z
C1    C     0.47799797019247 0.41879989962966 0.99020513974875 
C2    C     0.53879872023045 0.28316104917302 0.90764295042014 
C3    C     0.51298117976644 0.07016853042337 0.82963910022553 
C4    C     0.42681162003820 0.99456008053914 0.83790907948034 
C5    C     0.36255952992806 0.12899852992337 0.92259366057586 
C6    C     0.38855597993599 0.34727658050624 0.99884482953251 
C7    C     0.32385263020993 0.48480688984194 0.08005571972395 
C8    C     0.23789388008841 0.40852930943849 0.08864661989607 
C9    C     0.21237104967964 0.19250411930396 0.01473710050643 
C10   C     0.27326205010921 0.05669437041827 0.93282525964611 
H1    H     0.49760994004905 0.58334679925197 0.04959279962435 
H2    H     0.60697568016246 0.34159903976415 0.90208211023629 
H3    H     0.56103802992557 0.96482201007233 0.76310571039436 
H4    H     0.40730806007158 0.82954868083726 0.77909380026110 
H5    H     0.34336939030541 0.65269262019669 0.13460518990094 
H6    H     0.18925390989601 0.51314551987837 0.15416793962726 
H7    H     0.14432195971294 0.13408954064531 0.02329846951932 
H8    H     0.25386385006750 0.89114641053251 0.87454009022514 
