data_stdin
_audit_creation_method 'critic2'
_audit_creation_date 2023-8-11
_chemical_formula_sum 'C10 H8'
_cell_formula_units_Z 4
_cell_length_a         7.6282299100
_cell_length_b         5.8120930879
_cell_length_c        16.2067895367
_cell_angle_alpha        89.9936
_cell_angle_beta        90.0000
_cell_angle_gamma        90.0000
_cell_volume           718.543930
_space_group_crystal_system orthorhombic
_space_group_IT_number 33
_space_group_name_H-M_alt 'Pna2_1'
_space_group_name_Hall 'P 2c -2n'
loop_
_symmetry_equiv_pos_site_id
_symmetry_equiv_pos_as_xyz
 1 'x,y,z'
 2 '-x,-y,-1/2+z'
 3 '-1/2-x,-1/2+y,-1/2+z'
 4 '-1/2+x,-1/2-y,z'
loop_
_atom_site_label
_atom_site_type_symbol
_atom_site_fract_x
_atom_site_fract_y
_atom_site_fract_z
C1    C     0.72286166052820 0.78974509049723 0.01465492011841 
C2    C     0.67915128031479 0.89624824024603 0.08792515999984 
C3    C     0.59099113062922 0.11061128047612 0.08764836984228 
C4    C     0.54785364988420 0.21603260072674 0.01415068026197 
C5    C     0.59109340979138 0.11130319003978 0.93767254006440 
C6    C     0.67999468032024 0.89336071005738 0.93787022984422 
C7    C     0.72314299043949 0.78892282010259 0.86127528001156 
C8    C     0.67971795018950 0.89463509006020 0.78781359024361 
C9    C     0.59159852030296 0.10902607984080 0.78769871969656 
C10   C     0.54816651004398 0.21523803958439 0.86100461986827 
H1    H     0.79101432954246 0.62509826928694 0.01484546021793 
H2    H     0.71261484047936 0.81517649000258 0.14644406024782 
H3    H     0.55633679001492 0.19248031011861 0.14584595022700 
H4    H     0.47970283975523 0.38062728007334 0.01393144001709 
H5    H     0.79126529985570 0.62425950038649 0.86137807994229 
H6    H     0.71337863957851 0.81290734005320 0.72944498983694 
H7    H     0.55721216938601 0.19025847054976 0.72934588988324 
H8    H     0.48004016954848 0.37985806057297 0.86093138998471 
