data_stdin
_audit_creation_method 'critic2'
_audit_creation_date 2023-8-11
_chemical_formula_sum 'C10 H8'
_cell_formula_units_Z 8
_cell_length_a        16.6319207902
_cell_length_b         5.7456336901
_cell_length_c        15.4532580002
_cell_angle_alpha        90.0004
_cell_angle_beta        90.0005
_cell_angle_gamma        90.0002
_cell_volume          1476.727620
_space_group_crystal_system orthorhombic
_space_group_IT_number 61
_space_group_name_H-M_alt 'Pbca'
_space_group_name_Hall '-P 2ac 2ab'
loop_
_symmetry_equiv_pos_site_id
_symmetry_equiv_pos_as_xyz
 1 'x,y,z'
 2 '-x,-y,-z'
 3 '-1/2+x,-1/2-y,-z'
 4 '-1/2-x,-1/2+y,z'
 5 '-x,-1/2+y,-1/2-z'
 6 'x,-1/2-y,-1/2+z'
 7 '-1/2-x,-y,-1/2+z'
 8 '-1/2+x,y,-1/2-z'
loop_
_atom_site_label
_atom_site_type_symbol
_atom_site_fract_x
_atom_site_fract_y
_atom_site_fract_z
C1    C     0.67629996987968 0.76258541971031 0.77680268982218 
C2    C     0.67575290027510 0.82730330922392 0.86275936024126 
C3    C     0.63772942014528 0.03587260009799 0.88915355978491 
C4    C     0.60068912028846 0.17763953029349 0.82913526026259 
C5    C     0.60006599975477 0.11594471995311 0.74011016976698 
C6    C     0.63872180982735 0.90420802026953 0.71334079018432 
C7    C     0.63777488987064 0.84291007025355 0.62426778987734 
C8    C     0.59902752023514 0.98183419934711 0.56453038986453 
C9    C     0.56003439970673 0.18885376984258 0.59127646028110 
C10   C     0.56110345008041 0.25536195062408 0.67699315011743 
H1    H     0.70567719028400 0.60184080958312 0.75690627996199 
H2    H     0.70562132010783 0.71779096028207 0.91038814016667 
H3    H     0.63836041979378 0.08502173056559 0.95722232024630 
H4    H     0.57111390971298 0.33848404929462 0.84882455028048 
H5    H     0.66754727005065 0.68253852076723 0.60435274004080 
H6    H     0.59785920019519 0.93216302913741 0.49654321003123 
H7    H     0.52868739995131 0.29589588002528 0.54389835021932 
H8    H     0.53143100001421 0.41496737025379 0.69735216973221 
