data_stdin
_audit_creation_method 'critic2'
_audit_creation_date 2023-8-11
_chemical_formula_sum 'C10 H8'
_cell_formula_units_Z 8
_cell_length_a        16.6620856109
_cell_length_b         5.8571047755
_cell_length_c        15.4857984881
_cell_angle_alpha        89.9995
_cell_angle_beta        90.0004
_cell_angle_gamma        90.0004
_cell_volume          1511.283560
_space_group_crystal_system orthorhombic
_space_group_IT_number 61
_space_group_name_H-M_alt 'Pbca'
_space_group_name_Hall '-P 2ac 2ab'
loop_
_symmetry_equiv_pos_site_id
_symmetry_equiv_pos_as_xyz
 1 'x,y,z'
 2 '-x,-y,-z'
 3 '-1/2+x,-1/2-y,-z'
 4 '-1/2-x,-1/2+y,z'
 5 '-x,-1/2+y,-1/2-z'
 6 'x,-1/2-y,-1/2+z'
 7 '-1/2-x,-y,-1/2+z'
 8 '-1/2+x,y,-1/2-z'
loop_
_atom_site_label
_atom_site_type_symbol
_atom_site_fract_x
_atom_site_fract_y
_atom_site_fract_z
C1    C     0.05998597991280 0.26870449987393 0.67580686009707 
C2    C     0.13773302004317 0.34376509954669 0.66444367972335 
C3    C     0.15316338988757 0.55317116053546 0.62204649968899 
C4    C     0.09050963988047 0.68675477082456 0.59317775978335 
C5    C     0.00978287016160 0.61619896019323 0.60498030989358 
C6    C     0.99422499977827 0.40157406953502 0.64655757012926 
C7    C     0.91341607017565 0.33149100069691 0.65941432026440 
C8    C     0.85073576015746 0.46744527048742 0.63216112984609 
C9    C     0.86609346978682 0.67784206024043 0.59026844023376 
C10   C     0.94378741986449 0.75068642035857 0.57733532991647 
H1    H     0.04824150987505 0.10722937028717 0.70813208024488 
H2    H     0.18730888000343 0.24142923920937 0.68896628020931 
H3    H     0.21482172970324 0.60853704926074 0.61182605970997 
H4    H     0.10233094016282 0.84858876922969 0.56095835998768 
H5    H     0.90200904028844 0.16985470052816 0.69206699031444 
H6    H     0.78902198982714 0.41364723018462 0.64343167981094 
H7    H     0.81618946022689 0.78217898927449 0.56777408972766 
H8    H     0.95551160028545 0.91351653074773 0.54589395026729 
