data_stdin
_audit_creation_method 'critic2'
_audit_creation_date 2023-8-11
_chemical_formula_sum 'C10 H8'
_cell_formula_units_Z 8
_cell_length_a        13.6727512734
_cell_length_b        10.5393634500
_cell_length_c        11.4685743821
_cell_angle_alpha        90.0000
_cell_angle_beta        59.7499
_cell_angle_gamma        90.0000
_cell_volume          1427.612860
_space_group_crystal_system monoclinic
_space_group_IT_number 15
_space_group_name_H-M_alt 'C2/c'
_space_group_name_Hall '-C 2yc'
loop_
_symmetry_equiv_pos_site_id
_symmetry_equiv_pos_as_xyz
 1 'x,y,z'
 2 '-1/2-x,-1/2-y,-z'
 3 '-1/2-x,-1/2+y,-1/2-z'
 4 '-1/2+x,-1/2-y,-1/2+z'
 5 '-1/2+x,-1/2+y,z'
 6 '-x,-y,-z'
 7 '-x,y,-1/2-z'
 8 'x,-y,-1/2+z'
loop_
_atom_site_label
_atom_site_type_symbol
_atom_site_fract_x
_atom_site_fract_y
_atom_site_fract_z
C1    C     0.41080545984193 0.29245556954463 0.05523376952790 
C2    C     0.35560520995242 0.19890941011687 0.15014803973422 
C3    C     0.23590047994275 0.19621950001194 0.22670141013783 
C4    C     0.17348432977774 0.28721401968272 0.20653622999722 
C5    C     0.22751096012656 0.38486872036592 0.10939799977940 
C6    C     0.34896450012628 0.38752736018982 0.03199193023980 
C7    C     0.40322879999037 0.48416556971653 0.93380384026554 
C8    C     0.34076231029024 0.57473324957152 0.91294157965993 
C9    C     0.22110935998472 0.57218538979954 0.98898468986614 
C10   C     0.16599867984355 0.47899523004863 0.08454819041359 
H1    H     0.50294729999823 0.29490949969442 0.99664720959465 
H2    H     0.40347845989448 0.12566284007895 0.16668924960698 
H3    H     0.19407291958457 0.12098690963925 0.30057618016847 
H4    H     0.08125072021353 0.28456231003594 0.26463677964730 
H5    H     0.49537287971895 0.48533450955691 0.87432685049738 
H6    H     0.38279237007787 0.64818807986221 0.83681743956708 
H7    H     0.17330932017070 0.64345308988337 0.96981150030754 
H8    H     0.07376806953015 0.47555880034879 0.14126328044820 
