data_stdin
_audit_creation_method 'critic2'
_audit_creation_date 2023-8-11
_chemical_formula_sum 'C10 H8'
_cell_formula_units_Z 8
_cell_length_a        14.5944017803
_cell_length_b        11.2398438517
_cell_length_c         8.9444502200
_cell_angle_alpha        90.0000
_cell_angle_beta        90.0000
_cell_angle_gamma        90.0013
_cell_volume          1467.236855
_space_group_crystal_system orthorhombic
_space_group_IT_number 61
_space_group_name_H-M_alt 'Pbca'
_space_group_name_Hall '-P 2ac 2ab'
loop_
_symmetry_equiv_pos_site_id
_symmetry_equiv_pos_as_xyz
 1 'x,y,z'
 2 '-x,-y,-z'
 3 '-x,-1/2+y,-1/2-z'
 4 'x,-1/2-y,-1/2+z'
 5 '-1/2-x,-y,-1/2+z'
 6 '-1/2+x,y,-1/2-z'
 7 '-1/2+x,-1/2-y,-z'
 8 '-1/2-x,-1/2+y,z'
loop_
_atom_site_label
_atom_site_type_symbol
_atom_site_fract_x
_atom_site_fract_y
_atom_site_fract_z
C1    C     0.23916288979407 0.49234414968599 0.01545904044867 
C2    C     0.14728570990149 0.46600051025314 0.03036043000303 
C3    C     0.11056998971667 0.36151742989774 0.96547504030688 
C4    C     0.16625090997835 0.28527621975812 0.88554037042655 
C5    C     0.26122168990051 0.30934136968052 0.86898483000718 
C6    C     0.29848340010303 0.41501123959831 0.93564950958054 
C7    C     0.39372927969304 0.43775890988908 0.92060068000876 
C8    C     0.44983216976089 0.35974982975877 0.84437508999447 
C9    C     0.41282384017094 0.25583755036027 0.77829964950832 
C10   C     0.32050723987616 0.23151724961494 0.78990946053767 
H1    H     0.26697277999432 0.57296545014005 0.06567562974813 
H2    H     0.10301466985377 0.52587743968795 0.09285947051059 
H3    H     0.03800718991910 0.34156676967791 0.97908658046378 
H4    H     0.13850802030272 0.20528474983026 0.83345761946264 
H5    H     0.42156661983236 0.51866478038460 0.96988126990709 
H6    H     0.52271659993131 0.37826759987242 0.83218516993400 
H7    H     0.45728817017359 0.19493485019353 0.71739680997298 
H8    H     0.29187172973842 0.15183224016350 0.73902129055002 
