data_stdin
_audit_creation_method 'critic2'
_audit_creation_date 2023-8-11
_chemical_formula_sum 'C10 H8'
_cell_formula_units_Z 4
_cell_length_a        28.3751479204
_cell_length_b         7.1923372126
_cell_length_c         3.9609927668
_cell_angle_alpha        89.9989
_cell_angle_beta        89.7042
_cell_angle_gamma        89.9755
_cell_volume           808.362943
_space_group_crystal_system triclinic
_space_group_IT_number 1
_space_group_name_H-M_alt 'P1'
_space_group_name_Hall 'P 1'
loop_
_symmetry_equiv_pos_site_id
_symmetry_equiv_pos_as_xyz
 1 'x,y,z'
loop_
_atom_site_label
_atom_site_type_symbol
_atom_site_fract_x
_atom_site_fract_y
_atom_site_fract_z
C1    C     0.08030392012359 0.30651862049599 0.03551437067727 
C2    C     0.41964381987309 0.69421504944160 0.52161093003431 
C3    C     0.91964291017566 0.30505861986130 0.02132450959324 
C4    C     0.58031890984677 0.69422807062634 0.53513015939755 
C5    C     0.07272992998395 0.48165010977603 0.90494678093094 
C6    C     0.42718534000268 0.51914761936471 0.39011909968964 
C7    C     0.92720410992331 0.48011012957348 0.88991369101630 
C8    C     0.57273399994118 0.51914005009385 0.40452462125178 
C9    C     0.10926044988925 0.61538218002909 0.90579828080225 
C10   C     0.39069705015967 0.38523932955700 0.39480693005632 
C11   C     0.89073541982506 0.61421926960548 0.89477221102963 
C12   C     0.60924699008898 0.38521422992880 0.40558079950673 
C13   C     0.15281129003274 0.57128597046325 0.03605352051365 
C14   C     0.34719687993770 0.42921176933115 0.52922837926173 
C15   C     0.84723530008447 0.57046572973028 0.02927401116890 
C16   C     0.65279183999369 0.42907823944045 0.53602773981825 
C17   C     0.16187143016960 0.39208819011170 0.17013508874231 
C18   C     0.33814879002632 0.60842720962291 0.66389949011955 
C19   C     0.83816704003273 0.39127301020613 0.16386421937957 
C20   C     0.66186387015532 0.60823072062501 0.67012416961173 
C21   C     0.12474778000704 0.25670637968794 0.17077208884144 
C22   C     0.37525594989405 0.74387882974299 0.66122070096426 
C23   C     0.87525455984375 0.25561529026714 0.16100434903504 
C24   C     0.62475589993146 0.74380071972217 0.67060134111230 
C25   C     0.13385277000612 0.07772198003122 0.30603098047999 
C26   C     0.36617348987639 0.92282089969463 0.79738464116976 
C27   C     0.86615108988466 0.07668616991267 0.29703750076130 
C28   C     0.63386885985895 0.92272655933429 0.80594362931308 
C29   C     0.17747099008395 0.03381343938521 0.43549844882467 
C30   C     0.32257842996214 0.96668992008509 0.93048136001683 
C31   C     0.82255352017001 0.03302091012479 0.43014719920364 
C32   C     0.67748120005500 0.96640419939681 0.93560140932292 
C33   C     0.21408208013460 0.16728451059259 0.43442181974551 
C34   C     0.28596814012959 0.83321263038484 0.93232687968288 
C35   C     0.78596205991704 0.16669797051837 0.43216228942749 
C36   C     0.71407938998940 0.83275961038930 0.93462712069274 
C37   C     0.20638919005149 0.34228466024701 0.30403917108257 
C38   C     0.29365134004914 0.65820643053262 0.80140351876070 
C39   C     0.79366725016813 0.34170452956402 0.30140127981175 
C40   C     0.70637718993046 0.65780504069178 0.80418983119579 
H1    H     0.05218598001162 0.20316125053416 0.03457828094412 
H2    H     0.44773388987791 0.79768556993483 0.51786838030397 
H3    H     0.94771712998024 0.20142889984374 0.01744583977794 
H4    H     0.55221491011541 0.79773708964316 0.53404844105695 
H5    H     0.03872434001474 0.51713364051030 0.79665271912045 
H6    H     0.46110813987114 0.48389353945507 0.27775559940812 
H7    H     0.96112646012035 0.51518649994561 0.77748279017379 
H8    H     0.53873597009290 0.48385578055711 0.29602311945520 
H9    H     0.10303467996259 0.75306374945262 0.80076569031815 
H10   H     0.39690744984779 0.24755344994495 0.28931391945378 
H11   H     0.89696059012762 0.75189001930844 0.78933045071739 
H12   H     0.60301227992810 0.24756724962871 0.30052408923327 
H13   H     0.18096840001499 0.67424588023070 0.03684118992635 
H14   H     0.31906108985872 0.32616652014207 0.53277930942849 
H15   H     0.81911545996098 0.67367132977505 0.03294249979045 
H16   H     0.68093627997327 0.32597117933488 0.53695161009598 
H17   H     0.10566351009247 0.97475831974204 0.30668107082690 
H18   H     0.39435724014743 0.02580780023182 0.79572397050850 
H19   H     0.89431982012040 0.97354223940835 0.29524950126008 
H20   H     0.60569038005002 0.02582912987407 0.80650389919051 
H21   H     0.18384133009688 0.89628455966154 0.54085808059946 
H22   H     0.31622426996817 0.10418869953502 0.03647129967638 
H23   H     0.81618199995946 0.89552451958838 0.53601823050708 
H24   H     0.68385668009521 0.10388156944095 0.04106749056668 
H25   H     0.24822152993227 0.13032071987767 0.53919933082166 
H26   H     0.25183953982338 0.87018650019079 0.03975813090754 
H27   H     0.75183019995848 0.12987646019352 0.53958006101048 
H28   H     0.74821537006455 0.86954620006648 0.03952799096035 
H29   H     0.23444771000050 0.44566023976318 0.30337367944718 
H30   H     0.26560073986199 0.55479842014342 0.80301166976055 
H31   H     0.76563138002094 0.44526820054886 0.30314919124278 
H32   H     0.73442478985260 0.55428996039655 0.80362020925092 
