data_stdin
_audit_creation_method 'critic2'
_audit_creation_date 2023-8-11
_chemical_formula_sum 'C10 H8'
_cell_formula_units_Z 8
_cell_length_a        14.1930310300
_cell_length_b         7.2186786419
_cell_length_c        13.8501299208
_cell_angle_alpha        89.9993
_cell_angle_beta        90.0000
_cell_angle_gamma        90.0000
_cell_volume          1419.014091
_space_group_crystal_system orthorhombic
_space_group_IT_number 61
_space_group_name_H-M_alt 'Pbca'
_space_group_name_Hall '-P 2ac 2ab'
loop_
_symmetry_equiv_pos_site_id
_symmetry_equiv_pos_as_xyz
 1 'x,y,z'
 2 '-x,-y,-z'
 3 '-1/2+x,-1/2-y,-z'
 4 '-1/2-x,-1/2+y,z'
 5 '-x,-1/2+y,-1/2-z'
 6 'x,-1/2-y,-1/2+z'
 7 '-1/2-x,-y,-1/2+z'
 8 '-1/2+x,y,-1/2-z'
loop_
_atom_site_label
_atom_site_type_symbol
_atom_site_fract_x
_atom_site_fract_y
_atom_site_fract_z
C1    C     0.57837854007550 0.74427384036150 0.44648121991927 
C2    C     0.59690409987391 0.77971223004150 0.54241990965111 
C3    C     0.63879572013013 0.64229494050360 0.60124607005411 
C4    C     0.66161933970111 0.47173624995641 0.56297207981058 
C5    C     0.64314503983167 0.43056820978843 0.46456518989835 
C6    C     0.60047529966658 0.56989579961013 0.40497765971052 
C7    C     0.58364957999608 0.52956148976424 0.30618092969103 
C8    C     0.60933302002333 0.36076737979654 0.26757252025226 
C9    C     0.65174955986995 0.22361475065194 0.32632074036029 
C10   C     0.66765931971514 0.25760538047940 0.42290221011707 
H1    H     0.54791404989448 0.85160427989943 0.40082660998725 
H2    H     0.58019736970997 0.91480978989586 0.57281583031030 
H3    H     0.65416095993760 0.67276019058042 0.67664665024199 
H4    H     0.69579144028180 0.36680470015352 0.60726485026945 
H5    H     0.54969062973161 0.63405630963913 0.26134223029721 
H6    H     0.59686950992484 0.33166926026133 0.19148192972423 
H7    H     0.67231752026237 0.09096367956743 0.29529948034730 
H8    H     0.70039011020395 0.15245737057833 0.46814537985199 
