data_stdin
_audit_creation_method 'critic2'
_audit_creation_date 2023-8-11
_chemical_formula_sum 'C10 H8'
_cell_formula_units_Z 4
_cell_length_a        21.2446125431
_cell_length_b         5.8317967479
_cell_length_c         6.0888734497
_cell_angle_alpha        90.0000
_cell_angle_beta        90.0036
_cell_angle_gamma        90.0191
_cell_volume           754.376441
_space_group_crystal_system monoclinic
_space_group_IT_number 4
_space_group_name_H-M_alt 'P2_1'
_space_group_name_Hall 'P 2yb'
loop_
_symmetry_equiv_pos_site_id
_symmetry_equiv_pos_as_xyz
 1 'x,y,z'
 2 '-x,-y,-1/2+z'
loop_
_atom_site_label
_atom_site_type_symbol
_atom_site_fract_x
_atom_site_fract_y
_atom_site_fract_z
C1    C     0.37719086018555 0.60688585082618 0.99007638980778 
C2    C     0.12281231999036 0.60733226961576 0.49022114057219 
C3    C     0.42241673004145 0.56939726993940 0.14845112054794 
C4    C     0.07758631010643 0.56974480044725 0.64857905984351 
C5    C     0.45877922001180 0.36613388943571 0.14615241081604 
C6    C     0.04125854981058 0.36631974957152 0.64636021065589 
C7    C     0.44912546019767 0.20308464969184 0.98555499039528 
C8    C     0.05094352008220 0.20322217991202 0.48586687948307 
C9    C     0.40324668017037 0.23696272921731 0.81892872985800 
C10   C     0.09681236979894 0.23722815945158 0.31921831032305 
C11   C     0.36659549990384 0.44387954945067 0.82074007937728 
C12   C     0.13343134978529 0.44430088997028 0.32095813985702 
C13   C     0.32096390001734 0.47801672069861 0.65343166025333 
C14   C     0.17903650016538 0.47860430943217 0.15358559029294 
C15   C     0.31113793983611 0.31462261983459 0.49319098027547 
C16   C     0.18885753010050 0.31524280061184 0.99334459997343 
C17   C     0.34691116016574 0.11018265984313 0.49257471023846 
C18   C     0.15311694019276 0.11065534070604 0.99279856051255 
C19   C     0.39208181005402 0.07274704985939 0.65117756061827 
C20   C     0.10797861998277 0.07303911939202 0.15148164959926 
H1    H     0.34916042017673 0.76342442920116 0.99154170080566 
H2    H     0.15081743010371 0.76399008037103 0.49162747019239 
H3    H     0.43040091994126 0.69524128017059 0.27738663996448 
H4    H     0.06957231020737 0.69564120966963 0.77742328027794 
H5    H     0.49397596986631 0.34026826975714 0.27378228073264 
H6    H     0.00606913984274 0.34036161943944 0.77399932995068 
H7    H     0.47648975008307 0.04494966921420 0.98446373925010 
H8    H     0.02360467010664 0.04497106071043 0.48484237941687 
H9    H     0.29367160982395 0.63640404986066 0.65382479940298 
H10   H     0.20630862991451 0.63709305075664 0.15392723052833 
H11   H     0.27590975997474 0.34220273989645 0.36626006039896 
H12   H     0.22406556977366 0.34292917916086 0.86636897963338 
H13   H     0.33890483005753 0.98283494999140 0.36475719055803 
H14   H     0.16111298021404 0.98335998960988 0.86494475999484 
H15   H     0.41948586997028 0.91495644073396 0.65077533996080 
H16   H     0.08059952018345 0.91513379024653 0.15113892060987 
