data_stdin
_audit_creation_method 'critic2'
_audit_creation_date 2023-8-11
_chemical_formula_sum 'C10 H8'
_cell_formula_units_Z 8
_cell_length_a        13.9840598962
_cell_length_b        11.2998480700
_cell_length_c        10.2906636989
_cell_angle_alpha        90.0000
_cell_angle_beta        61.0191
_cell_angle_gamma        90.0000
_cell_volume          1422.487843
_space_group_crystal_system monoclinic
_space_group_IT_number 15
_space_group_name_H-M_alt 'C2/c'
_space_group_name_Hall '-C 2yc'
loop_
_symmetry_equiv_pos_site_id
_symmetry_equiv_pos_as_xyz
 1 'x,y,z'
 2 '-x,-y,-z'
 3 '-1/2-x,-1/2+y,-1/2-z'
 4 'x,-y,-1/2+z'
 5 '-1/2+x,-1/2+y,z'
 6 '-1/2-x,-1/2-y,-z'
 7 '-x,y,-1/2-z'
 8 '-1/2+x,-1/2-y,-1/2+z'
loop_
_atom_site_label
_atom_site_type_symbol
_atom_site_fract_x
_atom_site_fract_y
_atom_site_fract_z
C1    C     0.16446304953920 0.47711134025980 0.05859243030406 
C2    C     0.27004817972263 0.50237143966953 0.02685804050690 
C3    C     0.35908062031702 0.44013625005781 0.91313053006039 
C4    C     0.34130843983744 0.35415120966727 0.83215251982530 
C5    C     0.23358309994730 0.32585991020966 0.86201122956266 
C6    C     0.14309235969837 0.38824811959107 0.97837522029114 
C7    C     0.03531990993822 0.35864816006617 0.00980983988105 
C8    C     0.01735811013128 0.27238930006648 0.92913937956894 
C9    C     0.10648276951313 0.21111410034941 0.81443748055381 
C10   C     0.21211687951640 0.23698940979824 0.78206433039111 
H1    H     0.09618069958173 0.52540099974647 0.14616558029835 
H2    H     0.28471387012507 0.56943336009830 0.09104528025152 
H3    H     0.44180376010812 0.45927504956390 0.89169719018988 
H4    H     0.40957004998056 0.30546002000524 0.74513627984555 
H5    H     0.96691332021016 0.40591906957688 0.09854649026238 
H6    H     0.93435965042399 0.25141496969632 0.95307023963344 
H7    H     0.09213494992451 0.14190659975218 0.75234826031818 
H8    H     0.28008836021631 0.18772679033159 0.69545937966496 
