data_stdin
_audit_creation_method 'critic2'
_audit_creation_date 2023-8-11
_chemical_formula_sum 'C10 H8'
_cell_formula_units_Z 4
_cell_length_a        15.3168357760
_cell_length_b         8.3787098603
_cell_length_c         5.7647594168
_cell_angle_alpha        90.0004
_cell_angle_beta        89.9972
_cell_angle_gamma        90.0004
_cell_volume           739.822261
_space_group_crystal_system orthorhombic
_space_group_IT_number 33
_space_group_name_H-M_alt 'Pna2_1'
_space_group_name_Hall 'P 2c -2n'
loop_
_symmetry_equiv_pos_site_id
_symmetry_equiv_pos_as_xyz
 1 'x,y,z'
 2 '-x,-y,-1/2+z'
 3 '-1/2-x,-1/2+y,-1/2+z'
 4 '-1/2+x,-1/2-y,z'
loop_
_atom_site_label
_atom_site_type_symbol
_atom_site_fract_x
_atom_site_fract_y
_atom_site_fract_z
C1    C     0.35796584002600 0.77321600982152 0.04282929972471 
C2    C     0.39804138011682 0.64868996954713 0.92835590004173 
C3    C     0.43938152018372 0.67421592977294 0.71194160035964 
C4    C     0.44043523004962 0.82432532950883 0.61358675992886 
C5    C     0.39939032981755 0.95498746019306 0.72643099920077 
C6    C     0.35709600031412 0.92890536016292 0.94568850954140 
C7    C     0.31634076979810 0.05987009005067 0.05863768945270 
C8    C     0.31724080015033 0.20987775031976 0.96004873917671 
C9    C     0.35876285986457 0.23534368058479 0.74354955945318 
C10   C     0.39922103013888 0.11092227004514 0.62960752015843 
H1    H     0.32662444980492 0.75307275962114 0.20960386063133 
H2    H     0.39785799978770 0.52998063006819 0.00523043945685 
H3    H     0.47072597030227 0.57473408059474 0.62328793934260 
H4    H     0.47289350970252 0.84447718004817 0.44815406028562 
H5    H     0.28480111030966 0.04111323976549 0.22581609939840 
H6    H     0.28540621015839 0.30871057043045 0.04943226976864 
H7    H     0.35821880012694 0.35376562971636 0.66576650954609 
H8    H     0.43154541017655 0.13071992037229 0.46375438985118 
