data_stdin
_audit_creation_method 'critic2'
_audit_creation_date 2023-8-11
_chemical_formula_sum 'C10 H8'
_cell_formula_units_Z 8
_cell_length_a        14.5721409300
_cell_length_b         8.6582774502
_cell_length_c        11.6842278500
_cell_angle_alpha        90.0000
_cell_angle_beta        90.0000
_cell_angle_gamma        89.9996
_cell_volume          1474.194812
_space_group_crystal_system orthorhombic
_space_group_IT_number 61
_space_group_name_H-M_alt 'Pbca'
_space_group_name_Hall '-P 2ac 2ab'
loop_
_symmetry_equiv_pos_site_id
_symmetry_equiv_pos_as_xyz
 1 'x,y,z'
 2 '-x,-y,-z'
 3 '-1/2+x,-1/2-y,-z'
 4 '-1/2-x,-1/2+y,z'
 5 '-x,-1/2+y,-1/2-z'
 6 'x,-1/2-y,-1/2+z'
 7 '-1/2-x,-y,-1/2+z'
 8 '-1/2+x,y,-1/2-z'
loop_
_atom_site_label
_atom_site_type_symbol
_atom_site_fract_x
_atom_site_fract_y
_atom_site_fract_z
C1    C     0.55873676025289 0.05575776979208 0.63546158984003 
C2    C     0.60518947021748 0.13980138025321 0.55362169039062 
C3    C     0.56102781011956 0.26168143969655 0.49466613018798 
C4    C     0.47113299014733 0.29875687942562 0.51925363042329 
C5    C     0.42158629998799 0.21571542972212 0.60379358999585 
C6    C     0.46602723968512 0.09067768985596 0.66240203040268 
C7    C     0.41543060006132 0.00397358017796 0.74386674038893 
C8    C     0.32537395013157 0.04050470056045 0.76808587999388 
C9    C     0.28194964023222 0.16588351944790 0.71220222042080 
C10   C     0.32915621020437 0.25143606982413 0.63179476041541 
H1    H     0.59190668981489 0.95961846056392 0.67930725042252 
H2    H     0.67585833984527 0.11072333014542 0.53247280025528 
H3    H     0.59803192031138 0.32527063016090 0.42879353969364 
H4    H     0.43684845975658 0.39139621005733 0.47301157981754 
H5    H     0.44895551994714 0.90784061009024 0.78700646986845 
H6    H     0.28730826981934 0.97234170009780 0.83048148026724 
H7    H     0.21123207969290 0.19480193048021 0.73332228966452 
H8    H     0.29600840969347 0.34850154009493 0.58914201983421 
