data_stdin
_audit_creation_method 'critic2'
_audit_creation_date 2023-8-11
_chemical_formula_sum 'C10 H8'
_cell_formula_units_Z 8
_cell_length_a         5.4273467532
_cell_length_b         5.4274066606
_cell_length_c        50.5798285301
_cell_angle_alpha        89.9998
_cell_angle_beta        89.9983
_cell_angle_gamma        90.0016
_cell_volume          1489.900566
_space_group_crystal_system tetragonal
_space_group_IT_number 92
_space_group_name_H-M_alt 'P4_12_12'
_space_group_name_Hall 'P 4abw 2nw'
loop_
_symmetry_equiv_pos_site_id
_symmetry_equiv_pos_as_xyz
 1 'x,y,z'
 2 '-1/2-y,-1/2+x,-3/4+z'
 3 '-x,-y,-1/2+z'
 4 '-1/2+y,-1/2-x,-1/4+z'
 5 '-1/2+x,-1/2-y,-1/4-z'
 6 '-y,-x,-1/2-z'
 7 '-1/2-x,-1/2+y,-3/4-z'
 8 'y,x,-z'
loop_
_atom_site_label
_atom_site_type_symbol
_atom_site_fract_x
_atom_site_fract_y
_atom_site_fract_z
C1    C     0.07851684915049 0.87508628980152 0.16443021007073 
C2    C     0.07908000009902 0.05185011043409 0.14484678006087 
C3    C     0.89349135927017 0.23496251078563 0.14411597990121 
C4    C     0.71209343091281 0.23999715063568 0.16321122992925 
C5    C     0.70753217021218 0.06228626063543 0.18379455009011 
C6    C     0.89395086081301 0.87459209913052 0.18430431994523 
C7    C     0.88791701969416 0.69498572993093 0.20469424997913 
C8    C     0.70624883932893 0.69992327931095 0.22375148994055 
C9    C     0.52311738998634 0.88563249040387 0.22333167998550 
C10   C     0.52414662053774 0.06304086079448 0.20381078993601 
H1    H     0.22118288990925 0.73400161091347 0.16510665006293 
H2    H     0.22279958957419 0.05119891954831 0.12984013000432 
H3    H     0.89203672055954 0.37176667085496 0.12837148008406 
H4    H     0.57015421060177 0.38179800938754 0.16274628996512 
H5    H     0.02818350986040 0.55135592958840 0.20489825990330 
H6    H     0.70369240978055 0.56004467017259 0.23916900999523 
H7    H     0.38010643025763 0.88787246984327 0.23841815996541 
H8    H     0.38223512958092 0.20496062950286 0.20332436993355 
