data_stdin
_audit_creation_method 'critic2'
_audit_creation_date 2023-8-11
_chemical_formula_sum 'C10 H8'
_cell_formula_units_Z 4
_cell_length_a         7.8699516100
_cell_length_b        15.7245864201
_cell_length_c         5.7988930913
_cell_angle_alpha        89.9990
_cell_angle_beta        90.0000
_cell_angle_gamma        90.0001
_cell_volume           717.623076
_space_group_crystal_system orthorhombic
_space_group_IT_number 33
_space_group_name_H-M_alt 'Pna2_1'
_space_group_name_Hall 'P 2c -2n'
loop_
_symmetry_equiv_pos_site_id
_symmetry_equiv_pos_as_xyz
 1 'x,y,z'
 2 '-x,-y,-1/2+z'
 3 '-1/2-x,-1/2+y,-1/2+z'
 4 '-1/2+x,-1/2-y,z'
loop_
_atom_site_label
_atom_site_type_symbol
_atom_site_fract_x
_atom_site_fract_y
_atom_site_fract_z
C1    C     0.43330658045253 0.16056054018949 0.99317015030069 
C2    C     0.44976314024213 0.24429699968907 0.92657697045139 
C3    C     0.38202380939906 0.27228182988024 0.71369951972245 
C4    C     0.29920949962281 0.21605297989012 0.57040673008417 
C5    C     0.27968773000800 0.12937844017660 0.63370612916439 
C6    C     0.34835789945066 0.10091426971311 0.84975175002343 
C7    C     0.32832999979250 0.01424061970683 0.91379648965569 
C8    C     0.24170731997561 0.95861158030995 0.77220805086107 
C9    C     0.17235120936475 0.98680951017241 0.56045309085237 
C10   C     0.19186066061990 0.07024908003812 0.49239765965250 
H1    H     0.48560027968029 0.13863840006528 0.15639986936185 
H2    H     0.51749202045749 0.28913765022297 0.03650969916546 
H3    H     0.39641782060776 0.33855072973064 0.66320080987288 
H4    H     0.24627241009925 0.23728625000480 0.40655282072305 
H5    H     0.38222969991014 0.99257396981547 0.07662343970358 
H6    H     0.22664697050132 0.89235778985588 0.82277935061632 
H7    H     0.10356002010831 0.94262183983336 0.45024911916353 
H8    H     0.13932967015459 0.09165600015394 0.32856824992133 
