data_stdin
_audit_creation_method 'critic2'
_audit_creation_date 2023-8-11
_chemical_formula_sum 'C10 H8'
_cell_formula_units_Z 8
_cell_length_a        14.9925634855
_cell_length_b        16.7871961604
_cell_length_c         5.8877029531
_cell_angle_alpha        89.9989
_cell_angle_beta        89.9960
_cell_angle_gamma        89.9995
_cell_volume          1481.835352
_space_group_crystal_system monoclinic
_space_group_IT_number 7
_space_group_name_H-M_alt 'Pc'
_space_group_name_Hall 'P -2yc'
loop_
_symmetry_equiv_pos_site_id
_symmetry_equiv_pos_as_xyz
 1 'x,y,z'
 2 '-1/2+x,-1/2-y,z'
loop_
_atom_site_label
_atom_site_type_symbol
_atom_site_fract_x
_atom_site_fract_y
_atom_site_fract_z
C1    C     0.16999341407271 0.82474221287500 0.97649626242288 
C2    C     0.67014701677932 0.32418181927408 0.47773326794305 
C3    C     0.83000037200384 0.17540827407753 0.97681522792907 
C4    C     0.32984418462695 0.67599137844773 0.47811024368801 
C5    C     0.14769368746094 0.89521866132657 0.87014810544007 
C6    C     0.64798191243604 0.39492303706549 0.37265135018638 
C7    C     0.85228828937852 0.10487062971924 0.87076910365845 
C8    C     0.35198797161970 0.60517928677335 0.37337604302936 
C9    C     0.10152196993085 0.89445667865942 0.66039414911575 
C10   C     0.60180277072598 0.39469585366064 0.16290036526970 
C11   C     0.89844117241901 0.10551089873705 0.66096999030914 
C12   C     0.39814204384349 0.60526391984363 0.16357389030878 
C13   C     0.07958644603840 0.82322731816484 0.55770307432039 
C14   C     0.57971455118694 0.32372953526953 0.05892335092248 
C15   C     0.92037846525798 0.17668075773704 0.55793495452235 
C16   C     0.42023569771895 0.67615967551865 0.05920160015320 
C17   C     0.10219438925435 0.74961645825541 0.66163507824250 
C18   C     0.60218704568335 0.24985834113850 0.16156764364257 
C19   C     0.89779046430010 0.25035207044920 0.66156673341022 
C20   C     0.39779252760223 0.75010066127475 0.16149812721683 
C21   C     0.14779004214869 0.75038959659231 0.87625237253479 
C22   C     0.64780371258433 0.25008705451323 0.37616481323816 
C23   C     0.85220430346510 0.24970333300071 0.87621507061782 
C24   C     0.35219164320137 0.75001760215947 0.37613251305774 
C25   C     0.17043236946027 0.67677955961526 0.98013438996410 
C26   C     0.67033160373344 0.17621947324861 0.47871296689108 
C27   C     0.82957816317989 0.32337342165006 0.97978829538566 
C28   C     0.32969191592406 0.82395494520304 0.47832757215540 
C29   C     0.14853859584169 0.60555387217306 0.87735175724727 
C30   C     0.64828061566221 0.10525157763157 0.37469769956173 
C31   C     0.85149940050996 0.39454033606270 0.87670241617311 
C32   C     0.35177571800248 0.89485288648261 0.37395915745514 
C33   C     0.10233279249534 0.60479394318983 0.66764543007474 
C34   C     0.60203309151163 0.10502639641309 0.16504272528186 
C35   C     0.89771365273047 0.39517812657371 0.66698936844625 
C36   C     0.39802370543427 0.89493491302704 0.16428850605972 
C37   C     0.07997718640444 0.67527378720534 0.56138069414130 
C38   C     0.57981025896412 0.17577053434637 0.06005204445298 
C39   C     0.92003487656073 0.32463699439967 0.56099900659482 
C40   C     0.42020042303764 0.82411981779019 0.05961536013300 
H1    H     0.20515713286750 0.82532138751868 0.13828257729471 
H2    H     0.70532016045837 0.32435581490208 0.63951212166738 
H3    H     0.79485220854417 0.17492391653720 0.13863835777725 
H4    H     0.29469138324059 0.67592728827933 0.63993019516923 
H5    H     0.16613870247204 0.95177286545538 0.94773010784178 
H6    H     0.66653530843207 0.45127042580900 0.45127553979544 
H7    H     0.83385369363019 0.04836162550940 0.94863911992511 
H8    H     0.33344282054142 0.54888590342698 0.45233095940072 
H9    H     0.08275449703164 0.95040995151276 0.57986046485131 
H10   H     0.58314110022213 0.45086354932511 0.08342227742723 
H11   H     0.91720385973016 0.04950937860976 0.58068814764145 
H12   H     0.41679145993588 0.54904052400351 0.08438412746539 
H13   H     0.04431387685718 0.82266790511961 0.39609693018608 
H14   H     0.54440762585450 0.32355601796640 0.89735180176426 
H15   H     0.95564087538892 0.17714682003602 0.39629820217206 
H16   H     0.45552991075286 0.67622408128377 0.89759658516683 
H17   H     0.20568546664230 0.67733729622954 0.14176814499289 
H18   H     0.70561847697337 0.17638488007681 0.64030940238356 
H19   H     0.79431830750337 0.32290896054028 0.14142731406188 
H20   H     0.29440333548516 0.82389870215839 0.63993524150227 
H21   H     0.16735984930898 0.54959662367421 0.95778902341330 
H22   H     0.66701704057992 0.04908386828980 0.45406630095342 
H23   H     0.83268306794384 0.45054625587917 0.95688557202206 
H24   H     0.33305549536331 0.95107693406996 0.45304149959979 
H25   H     0.08390050091028 0.54824363875652 0.59002300728898 
H26   H     0.58347706509845 0.04868312761683 0.08640371954295 
H27   H     0.91617981207138 0.45168221479036 0.58914244780251 
H28   H     0.41661600762735 0.95122320317053 0.08538189889070 
H29   H     0.04474573393773 0.67470214750537 0.39969359512882 
H30   H     0.54456509836272 0.17559116724772 0.89839177631042 
H31   H     0.95526024192883 0.32511512918051 0.39929148190621 
H32   H     0.45543358212705 0.82418987766099 0.89792821496882 
