data_stdin
_audit_creation_method 'critic2'
_audit_creation_date 2023-8-11
_chemical_formula_sum 'C10 H8'
_cell_formula_units_Z 8
_cell_length_a        32.9614759059
_cell_length_b         7.5119014840
_cell_length_c         5.9360084966
_cell_angle_alpha        90.0009
_cell_angle_beta        79.8898
_cell_angle_gamma        90.0045
_cell_volume          1446.952925
_space_group_crystal_system monoclinic
_space_group_IT_number 15
_space_group_name_H-M_alt 'C2/c'
_space_group_name_Hall '-C 2yc'
loop_
_symmetry_equiv_pos_site_id
_symmetry_equiv_pos_as_xyz
 1 'x,y,z'
 2 '-1/2-x,-1/2-y,-z'
 3 '-1/2-x,-1/2+y,-1/2-z'
 4 'x,-y,-1/2+z'
 5 '-1/2+x,-1/2+y,z'
 6 '-x,-y,-z'
 7 '-x,y,-1/2-z'
 8 '-1/2+x,-1/2-y,-1/2+z'
loop_
_atom_site_label
_atom_site_type_symbol
_atom_site_fract_x
_atom_site_fract_y
_atom_site_fract_z
C1    C     0.09805885000852 0.15828566054039 0.66567046947480 
C2    C     0.05787929001605 0.19073317943559 0.64141092982517 
C3    C     0.04907297993889 0.27524282999017 0.44225983002291 
C4    C     0.08067241014770 0.32537889948124 0.26934279993773 
C5    C     0.12238897001639 0.29260456001404 0.28826555991842 
C6    C     0.13128358996769 0.20751067028458 0.49083097016997 
C7    C     0.17298130005437 0.17419088032303 0.50952629079082 
C8    C     0.20456248003401 0.22519555053419 0.33709716954336 
C9    C     0.19582699006248 0.31146979990471 0.13902139938491 
C10   C     0.15563955010695 0.34313200065915 0.11417611081801 
H1    H     0.10465141007841 0.09385248982332 0.81942313074338 
H2    H     0.03293244992839 0.15030257000208 0.77712353933227 
H3    H     0.01716514003265 0.30133826000776 0.42625097988163 
H4    H     0.07415915010638 0.39112404946473 0.11600749005439 
H5    H     0.17951499012035 0.10774190013682 0.66236801918817 
H6    H     0.23643767013363 0.19861636018809 0.35286203970759 
H7    H     0.22093822996482 0.35365683058087 0.00531663973503 
H8    H     0.14904581997679 0.40826958054598 0.96089112997827 
