data_stdin
_audit_creation_method 'critic2'
_audit_creation_date 2023-8-11
_chemical_formula_sum 'C10 H8'
_cell_formula_units_Z 4
_cell_length_a         8.6434491068
_cell_length_b        14.8861746300
_cell_length_c         6.1522279443
_cell_angle_alpha        90.0006
_cell_angle_beta        65.1015
_cell_angle_gamma        89.9998
_cell_volume           718.019467
_space_group_crystal_system monoclinic
_space_group_IT_number 14
_space_group_name_H-M_alt 'P2_1/c'
_space_group_name_Hall '-P 2ybc'
loop_
_symmetry_equiv_pos_site_id
_symmetry_equiv_pos_as_xyz
 1 'x,y,z'
 2 '-x,-y,-z'
 3 '-x,-1/2+y,-1/2-z'
 4 'x,-1/2-y,-1/2+z'
loop_
_atom_site_label
_atom_site_type_symbol
_atom_site_fract_x
_atom_site_fract_y
_atom_site_fract_z
C1    C     0.03737649005352 0.32992685975875 0.69887618914265 
C2    C     0.20728982990796 0.34224599995323 0.54888141948102 
C3    C     0.25574761000252 0.38199234017738 0.32070381028043 
C4    C     0.13361149929591 0.40777981018425 0.24445489061227 
C5    C     0.95762232998456 0.39514902989156 0.39293978996492 
C6    C     0.90836494972737 0.35572700021301 0.62567040944575 
C7    C     0.73245348009579 0.34150760987203 0.77283552047851 
C8    C     0.61049364007456 0.36543693976700 0.69387793071147 
C9    C     0.65905406063295 0.40461558968804 0.46485401934406 
C10   C     0.82884805966635 0.41898672014769 0.31786178954620 
H1    H     0.00041413025901 0.29916825022108 0.87416740944549 
H2    H     0.30459316977345 0.32071289012305 0.60627028032411 
H3    H     0.39022459958259 0.39251099987421 0.20516521977810 
H4    H     0.17082196011179 0.43770385994177 0.06797944039536 
H5    H     0.69612296939926 0.31012989971011 0.94761780060687 
H6    H     0.47602692003326 0.35345282012658 0.80734823008158 
H7    H     0.56157171978879 0.42361670999879 0.40522905962719 
H8    H     0.86662180996589 0.44825063023109 0.14062180917721 
