data_stdin
_audit_creation_method 'critic2'
_audit_creation_date 2023-8-11
_chemical_formula_sum 'C10 H8'
_cell_formula_units_Z 8
_cell_length_a         8.1578303739
_cell_length_b        29.6369252450
_cell_length_c         5.9172110920
_cell_angle_alpha        90.0021
_cell_angle_beta        90.0002
_cell_angle_gamma        90.0036
_cell_volume          1430.621927
_space_group_crystal_system orthorhombic
_space_group_IT_number 61
_space_group_name_H-M_alt 'Pbca'
_space_group_name_Hall '-P 2ac 2ab'
loop_
_symmetry_equiv_pos_site_id
_symmetry_equiv_pos_as_xyz
 1 'x,y,z'
 2 '-x,-y,-z'
 3 '-x,-1/2+y,-1/2-z'
 4 'x,-1/2-y,-1/2+z'
 5 '-1/2-x,-y,-1/2+z'
 6 '-1/2+x,y,-1/2-z'
 7 '-1/2+x,-1/2-y,-z'
 8 '-1/2-x,-1/2+y,z'
loop_
_atom_site_label
_atom_site_type_symbol
_atom_site_fract_x
_atom_site_fract_y
_atom_site_fract_z
C1    C     0.67721065046693 0.60485082015718 0.24488121016806 
C2    C     0.63362467014412 0.56122724987216 0.30043849057078 
C3    C     0.68460612035557 0.54220474986656 0.50853725990791 
C4    C     0.77856327995054 0.56704882003656 0.65712021043720 
C5    C     0.82521504048485 0.61197938987995 0.60502883060700 
C6    C     0.77296302946299 0.63137119983894 0.39481857073001 
C7    C     0.81861205040546 0.67650695983696 0.34403667998163 
C8    C     0.91442363980311 0.70098425007739 0.49224567997069 
C9    C     0.96845425962159 0.68145762016622 0.69764993983230 
C10   C     0.92316836031641 0.63805743000741 0.75393362968027 
H1    H     0.63795028990592 0.61951313003335 0.08519110916910 
H2    H     0.55867788054440 0.54157436991193 0.18397195044634 
H3    H     0.64936151047265 0.50786368009556 0.55255589947702 
H4    H     0.81788155976309 0.55271378010473 0.81758154002075 
H5    H     0.77730936001879 0.69130124990199 0.18533773025149 
H6    H     0.94924420941089 0.73547788009440 0.45096529068377 
H7    H     0.04820454952820 0.70040430000086 0.81080025024498 
H8    H     0.96338851053523 0.62311818011813 0.91251976998830 
