data_stdin
_audit_creation_method 'critic2'
_audit_creation_date 2023-8-11
_chemical_formula_sum 'C10 H8'
_cell_formula_units_Z 18
_cell_length_a        31.9878598591
_cell_length_b        31.9907514249
_cell_length_c         3.9471113835
_cell_angle_alpha        90.0169
_cell_angle_beta        90.0717
_cell_angle_gamma       120.0420
_cell_volume          3496.511578
_space_group_crystal_system triclinic
_space_group_IT_number 2
_space_group_name_H-M_alt 'P-1'
_space_group_name_Hall '-P 1'
loop_
_symmetry_equiv_pos_site_id
_symmetry_equiv_pos_as_xyz
 1 'x,y,z'
 2 '-x,-y,-z'
 3 '-1/3+x,-2/3+y,-2/3+z'
 4 '-1/3-x,-2/3-y,-2/3-z'
 5 '-2/3+x,-1/3+y,-1/3+z'
 6 '-2/3-x,-1/3-y,-1/3-z'
loop_
_atom_site_label
_atom_site_type_symbol
_atom_site_fract_x
_atom_site_fract_y
_atom_site_fract_z
C1    C     0.04414622935350 0.17762002138763 0.66807217385147 
C2    C     0.82241327406873 0.86659014487575 0.66910395262768 
C3    C     0.13349478745611 0.95581983791279 0.66933914680837 
C4    C     0.07856258449237 0.16487280424023 0.73618457625225 
C5    C     0.83518575362824 0.91376998558467 0.73728703980891 
C6    C     0.08632697438022 0.92143866270955 0.73809135530199 
C7    C     0.12290462025469 0.19833684502885 0.88950647335150 
C8    C     0.80174695959626 0.92461602845012 0.89003886255050 
C9    C     0.07548346019757 0.87715811534159 0.89118371800116 
C10   C     0.13207581123533 0.24399970794340 0.97323517031484 
C11   C     0.75608271430104 0.88807457369411 0.97321272968933 
C12   C     0.11201510342763 0.86801340670143 0.97405684094398 
C13   C     0.09739260814019 0.25828343913443 0.90718680141101 
C14   C     0.74177261202518 0.83909093762650 0.90707769382612 
C15   C     0.16098814996021 0.90266334849088 0.90736547728916 
C16   C     0.05241744247743 0.22433953763823 0.75115414869202 
C17   C     0.77568775470456 0.82809141482264 0.75156125446614 
C18   C     0.17198402933684 0.94757719849479 0.75157784800514 
C19   C     0.01771197844328 0.23860857153315 0.68515746454178 
C20   C     0.76138785872326 0.77909986682561 0.68543214499835 
C21   C     0.22096462757418 0.98225132508838 0.68496593211244 
C22   C     0.02712043745625 0.28443781449741 0.76639126028661 
C23   C     0.71555493611443 0.74263027510561 0.76607091953499 
C24   C     0.25742260187050 0.97286580284638 0.76531180325412 
C25   C     0.07163723604073 0.31805229488565 0.91663528078828 
C26   C     0.68196942691121 0.75350145098800 0.91580404076229 
C27   C     0.24655266905472 0.92840640741824 0.91527446081088 
C28   C     0.10584434956746 0.30512332447220 0.98744775421849 
C29   C     0.69492832087186 0.80065312391170 0.98676248167419 
C30   C     0.19941421399729 0.89423594419453 0.98674977626889 
H1    H     0.01015434438026 0.15206455757799 0.54745069574756 
H2    H     0.84794510150402 0.85817521967916 0.54886543924208 
H3    H     0.14190337233645 0.98976134304522 0.54885271283238 
H4    H     0.07176513727078 0.12891685898677 0.67000173879672 
H5    H     0.87114376344066 0.94296691857742 0.67155746595900 
H6    H     0.05713677247691 0.92821627464933 0.67258770725310 
H7    H     0.14977351837449 0.18783705456793 0.94270164972313 
H8    H     0.81226449013607 0.96199792544477 0.94326881810670 
H9    H     0.03811044612054 0.85031711361573 0.94487003481945 
H10   H     0.16618219344612 0.26978281972983 0.09192728278366 
H11   H     0.73032054074579 0.89637275570935 0.09151710332770 
H12   H     0.10371769865976 0.83395462408197 0.09257864219287 
H13   H     0.98367996640076 0.21278690902443 0.56535063958383 
H14   H     0.78718705362370 0.77091326787046 0.56601065772974 
H15   H     0.22915085515158 0.01624035191869 0.56540294187489 
H16   H     0.00023223168568 0.29495871766129 0.71378158321868 
H17   H     0.70501355002691 0.70520735837896 0.71339402092343 
H18   H     0.29483621865786 0.99972886665608 0.71222603237534 
H19   H     0.07889763505994 0.35437435669742 0.97416773058740 
H20   H     0.64564373997912 0.72440198043940 0.97285770883294 
H21   H     0.27564165917198 0.92116325823157 0.97208828843244 
H22   H     0.14008529890662 0.33095647172823 0.10387785485154 
H23   H     0.66912467284327 0.80904197593015 0.10288864711809 
H24   H     0.19102896633785 0.86004411331913 0.10306574327394 
