data_stdin
_audit_creation_method 'critic2'
_audit_creation_date 2023-8-11
_chemical_formula_sum 'C10 H8'
_cell_formula_units_Z 8
_cell_length_a        17.4331633043
_cell_length_b         5.9151779227
_cell_length_c        14.6154781646
_cell_angle_alpha        89.9963
_cell_angle_beta        89.3815
_cell_angle_gamma        89.8920
_cell_volume          1507.061467
_space_group_crystal_system triclinic
_space_group_IT_number 2
_space_group_name_H-M_alt 'P-1'
_space_group_name_Hall '-P 1'
loop_
_symmetry_equiv_pos_site_id
_symmetry_equiv_pos_as_xyz
 1 'x,y,z'
 2 '-x,-y,-z'
 3 '-1/2+x,-1/2+y,z'
 4 '-1/2-x,-1/2-y,-z'
loop_
_atom_site_label
_atom_site_type_symbol
_atom_site_fract_x
_atom_site_fract_y
_atom_site_fract_z
C1    C     0.66637424415696 0.25307045183063 0.18821420324443 
C2    C     0.83363354376916 0.25486172473617 0.31182539442642 
C3    C     0.67746907603015 0.19310488060310 0.09788090738972 
C4    C     0.82254378787135 0.19495493638882 0.40215751468690 
C5    C     0.65255737233642 0.97984100360885 0.06582320705816 
C6    C     0.84747186640764 0.98140776090945 0.43420086240629 
C7    C     0.61577354153596 0.83183657835174 0.12447413570229 
C8    C     0.88425629943042 0.83304421896534 0.37554103402993 
C9    C     0.60298086841476 0.88921016138031 0.21776297292184 
C10   C     0.89703833468779 0.89033512128174 0.28225353312072 
C11   C     0.62935821208340 0.10382923781521 0.25046390501303 
C12   C     0.87065642837042 0.10526217573434 0.24956641558620 
C13   C     0.61591435758760 0.16167972805381 0.34345483613649 
C14   C     0.88409297647517 0.16301423538885 0.15657589109222 
C15   C     0.57749988394867 0.01581683564104 0.40149537054675 
C16   C     0.92249838824926 0.01675151409116 0.09852425641395 
C17   C     0.55093630136105 0.80466009748078 0.36909225030173 
C18   C     0.94906291261721 0.80528121379869 0.13091430881610 
C19   C     0.56369737418034 0.74256170474873 0.27916642640856 
C20   C     0.93631488570379 0.74328064624755 0.22084096033398 
H1    H     0.68531161603436 0.41736874869477 0.21275999313288 
H2    H     0.81468864754158 0.41938576437506 0.28729051316580 
H3    H     0.70504719466312 0.31100698314669 0.05077132926194 
H4    H     0.79495808179619 0.31310283302418 0.44928073420924 
H5    H     0.66212725856935 0.93206078648448 0.99459961710623 
H6    H     0.83791717642902 0.93368522704331 0.50542438147452 
H7    H     0.59560628446626 0.66863246059677 0.10017263243737 
H8    H     0.90443156713992 0.66960997391515 0.39983341152299 
H9    H     0.63568249446047 0.32511545788598 0.36795047506685 
H10   H     0.86432759926698 0.32668728219235 0.13208613693394 
H11   H     0.56729390539128 0.06443862066746 0.47246984199625 
H12   H     0.93269524923650 0.06529490944431 0.02754911089565 
H13   H     0.51974733048465 0.69114071911655 0.41488225396853 
H14   H     0.98024422602696 0.69143791151377 0.08511481616952 
H15   H     0.54287652134826 0.58105703743535 0.25390131585210 
H16   H     0.95713867310481 0.58153484330808 0.24610039354629 
