data_stdin
_audit_creation_method 'critic2'
_audit_creation_date 2023-8-11
_chemical_formula_sum 'C10 H8'
_cell_formula_units_Z 4
_cell_length_a        15.9766047405
_cell_length_b        11.4194470752
_cell_length_c         3.8587643904
_cell_angle_alpha        90.0012
_cell_angle_beta        89.9960
_cell_angle_gamma        89.9978
_cell_volume           704.008378
_space_group_crystal_system orthorhombic
_space_group_IT_number 33
_space_group_name_H-M_alt 'Pna2_1'
_space_group_name_Hall 'P 2c -2n'
loop_
_symmetry_equiv_pos_site_id
_symmetry_equiv_pos_as_xyz
 1 'x,y,z'
 2 '-x,-y,-1/2+z'
 3 '-1/2-x,-1/2+y,-1/2+z'
 4 '-1/2+x,-1/2-y,z'
loop_
_atom_site_label
_atom_site_type_symbol
_atom_site_fract_x
_atom_site_fract_y
_atom_site_fract_z
C1    C     0.30112494006383 0.87254343996029 0.00374056121107 
C2    C     0.23024557985686 0.81152933961960 0.09738811035804 
C3    C     0.23030551991825 0.68770792995881 0.09718199948919 
C4    C     0.30124117008248 0.62686776034129 0.00329359914233 
C5    C     0.37503083980519 0.68694269021133 0.90249957009029 
C6    C     0.37497574982706 0.81265037977583 0.90275792959553 
C7    C     0.44877118976374 0.87272053998563 0.80201250939042 
C8    C     0.51970716985477 0.81187580010238 0.70812580129340 
C9    C     0.51975399015136 0.68805629968707 0.70780430109823 
C10   C     0.44887110998847 0.62704642977270 0.80143525942926 
H1    H     0.30100859023119 0.96796738997783 0.00693135090845 
H2    H     0.17362026995397 0.85828075969995 0.17122070982663 
H3    H     0.17372430969151 0.64081167997582 0.17081177960750 
H4    H     0.30121443010881 0.53144273970995 0.00613601987833 
H5    H     0.44881383020676 0.96814646040123 0.79925904984619 
H6    H     0.57628908022233 0.85876666967980 0.63448121073404 
H7    H     0.57636955011479 0.64129036026323 0.63391987928744 
H8    H     0.44896597974287 0.53162402990196 0.79798022961052 
