data_stdin
_audit_creation_method 'critic2'
_audit_creation_date 2023-8-11
_chemical_formula_sum 'C10 H8'
_cell_formula_units_Z 16
_cell_length_a        31.4827660278
_cell_length_b        15.6563932544
_cell_length_c         5.9523694309
_cell_angle_alpha        90.0001
_cell_angle_beta        89.9939
_cell_angle_gamma        89.9999
_cell_volume          2933.961957
_space_group_crystal_system orthorhombic
_space_group_IT_number 43
_space_group_name_H-M_alt 'Fdd2'
_space_group_name_Hall 'F 2 -2d'
loop_
_symmetry_equiv_pos_site_id
_symmetry_equiv_pos_as_xyz
 1 'x,y,z'
 2 '-x,-1/2-y,-1/2+z'
 3 '-1/4+x,-1/4-y,-3/4+z'
 4 '-1/4-x,-1/4+y,-3/4+z'
 5 '-1/2+x,y,-1/2+z'
 6 '-1/2-x,-1/2-y,z'
 7 '-3/4+x,-1/4-y,-1/4+z'
 8 '-3/4-x,-1/4+y,-1/4+z'
 9 'x,-1/2+y,-1/2+z'
 10 '-x,-y,z'
 11 '-1/4+x,-3/4-y,-1/4+z'
 12 '-1/4-x,-3/4+y,-1/4+z'
 13 '-1/2+x,-1/2+y,z'
 14 '-1/2-x,-y,-1/2+z'
 15 '-3/4+x,-3/4-y,-3/4+z'
 16 '-3/4-x,-3/4+y,-3/4+z'
loop_
_atom_site_label
_atom_site_type_symbol
_atom_site_fract_x
_atom_site_fract_y
_atom_site_fract_z
C1    C     0.33576035473918 0.46289272835125 0.48593427536153 
C2    C     0.33585627500301 0.37712621721865 0.53828174265866 
C3    C     0.31967354120778 0.34845794498875 0.74707926483446 
C4    C     0.30343176892013 0.40604593340973 0.89980186374572 
C5    C     0.30274748612428 0.49486076943547 0.85066921885353 
C6    C     0.31921599523206 0.52398181356681 0.63915713323091 
C7    C     0.31763459547320 0.61254680738764 0.58867176286319 
C8    C     0.30038417977485 0.66983839696471 0.73930472116425 
C9    C     0.28414624825264 0.64103600022484 0.94766068016853 
C10   C     0.28538989517912 0.55547729589816 0.00231962227639 
H1    H     0.34792338097989 0.48458111682997 0.32444129196162 
H2    H     0.34856900851120 0.33118477953265 0.41835982655655 
H3    H     0.32037554470952 0.28056535963576 0.78645646574121 
H4    H     0.29038193749469 0.38464225953467 0.05982133512162 
H5    H     0.33036540988420 0.63436651133620 0.42861969528609 
H6    H     0.29904691491732 0.73757483903227 0.69828687987498 
H7    H     0.27026539412331 0.68639593782971 0.06517724747379 
H8    H     0.27257282021481 0.53330597663944 0.16173951984203 
