data_stdin
_audit_creation_method 'critic2'
_audit_creation_date 2023-8-11
_chemical_formula_sum 'C10 H8'
_cell_formula_units_Z 4
_cell_length_a         5.8123044748
_cell_length_b         7.5293785200
_cell_length_c        17.4196754900
_cell_angle_alpha        90.0000
_cell_angle_beta        90.0023
_cell_angle_gamma        90.0000
_cell_volume           762.337963
_space_group_crystal_system triclinic
_space_group_IT_number 1
_space_group_name_H-M_alt 'P 1'
_space_group_name_Hall 'P 1'
loop_
_symmetry_equiv_pos_site_id
_symmetry_equiv_pos_as_xyz
 1 'x,y,z'
loop_
_atom_site_label
_atom_site_type_symbol
_atom_site_fract_x
_atom_site_fract_y
_atom_site_fract_z
C1    C     0.96360221023022 0.16129967971792 0.00370657974257 
C2    C     0.03639745007275 0.83867730978036 0.50371143013866 
C3    C     0.53639735064471 0.16132271053250 0.50371138995401 
C4    C     0.46360222019252 0.83870033987227 0.00370656998329 
C5    C     0.85860185955536 0.20560595037042 0.07211483995592 
C6    C     0.14138232984032 0.79432515009556 0.57211753008356 
C7    C     0.64138210936768 0.20567486000495 0.57211750984589 
C8    C     0.35860188045041 0.79439408981968 0.07211482000889 
C9    C     0.64494707961666 0.29600962971310 0.07232353984303 
C10   C     0.35502470028720 0.70390444942953 0.57232100016285 
C11   C     0.85502448029055 0.29609556031023 0.57232103021664 
C12   C     0.14494711035848 0.70399040021632 0.07232354021510 
C13   C     0.53816459978555 0.33942566966430 0.00411450010141 
C14   C     0.46181299945898 0.66051950047824 0.50410975010177 
C15   C     0.96181289069692 0.33948052049082 0.50410978973811 
C16   C     0.03816463972736 0.66057432935474 0.00411448974332 
C17   C     0.64111246054188 0.29504985942324 0.93272070980634 
C18   C     0.35888237953411 0.70494280942238 0.43271810978777 
C19   C     0.85888240042007 0.29505720972749 0.43271813004879 
C20   C     0.14111247922706 0.70495010972969 0.93272069987926 
C21   C     0.85890679994507 0.20495522943700 0.93251047995989 
C22   C     0.14109829040742 0.79505199970549 0.43251307026960 
C23   C     0.64109831081310 0.20494801991514 0.43251304025025 
C24   C     0.35890680018531 0.79504476049168 0.93251046979483 
C25   C     0.96185764918939 0.16058107935949 0.86111708006859 
C26   C     0.03816465962895 0.83947360997029 0.36112180994475 
C27   C     0.53816479935969 0.16052641978440 0.36112175997594 
C28   C     0.46185764021643 0.83941887937489 0.86111706976057 
C29   C     0.85506949002711 0.20398381940828 0.79290759994296 
C30   C     0.14495867942278 0.79610201006224 0.29291012998798 
C31   C     0.64495894071124 0.20389802959347 0.29291011026766 
C32   C     0.35506947993106 0.79601612036903 0.79290758981232 
C33   C     0.64141276077528 0.29438432983074 0.79311600990149 
C34   C     0.35860305939933 0.70568453941044 0.29311331019252 
C35   C     0.85860331084089 0.29431549058754 0.29311332985620 
C36   C     0.14141276052594 0.70561559038902 0.79311600975692 
C37   C     0.53641563085361 0.33869891059802 0.86152399977478 
C38   C     0.46358468916489 0.66132406031396 0.36151912995018 
C39   C     0.96358482988467 0.33867595017485 0.36151917989441 
C40   C     0.03641565013958 0.66130103022157 0.86152399977542 
H1    H     0.12803819031587 0.09208253980882 0.00358079025346 
H2    H     0.87197004982683 0.90790685044623 0.50358882992782 
H3    H     0.37196995995407 0.09209317024889 0.50358874996517 
H4    H     0.62803819072303 0.90791749002195 0.00358078008731 
H5    H     0.94104000084502 0.17022135974128 0.12617352011326 
H6    H     0.05894015941119 0.82968308025658 0.62617833987427 
H7    H     0.55893984995983 0.17031694973032 0.62617830000690 
H8    H     0.44104004017841 0.82977868001796 0.12617351003684 
H9    H     0.56439187000836 0.33266727933836 0.12654259003519 
H10   H     0.43556212919339 0.66720008057716 0.62653774011310 
H11   H     0.93556181062374 0.33279991948658 0.62653778008288 
H12   H     0.06439189953424 0.66733277972550 0.12654259025065 
H13   H     0.37378839982272 0.40871545965920 0.00429110994901 
H14   H     0.62617991083672 0.59121794988606 0.50428322012817 
H15   H     0.12617979940035 0.40878206007772 0.50428330011924 
H16   H     0.87378844932069 0.59128451982115 0.00429110975430 
H17   H     0.12623827080784 0.09129774009614 0.86094212013962 
H18   H     0.87379330939379 0.90876866998701 0.36094997995745 
H19   H     0.37379343975535 0.09123136014806 0.36094989996711 
H20   H     0.62623825055834 0.90870223950495 0.86094210024204 
H21   H     0.93564123008482 0.16734069023755 0.73868957008622 
H22   H     0.06440463060371 0.83279166986552 0.23869438983057 
H23   H     0.56440496981911 0.16720837016975 0.23869436019450 
H24   H     0.43564121948441 0.83265920977985 0.73868954977851 
H25   H     0.55899048066395 0.32978974953602 0.73905706014990 
H26   H     0.44102954930086 0.67030606970582 0.23905222980476 
H27   H     0.94102990004379 0.32969394970311 0.23905227024714 
H28   H     0.05899047918144 0.67021014986409 0.73905705989329 
H29   H     0.37200281025501 0.40794856049410 0.86164820975596 
H30   H     0.62798894024374 0.59206202028615 0.36164017011576 
H31   H     0.12798908001023 0.40793798052410 0.36164025008020 
H32   H     0.87200284081705 0.59205135945924 0.86164821016235 
