data_stdin
_audit_creation_method 'critic2'
_audit_creation_date 2023-8-11
_chemical_formula_sum 'C10 H8'
_cell_formula_units_Z 8
_cell_length_a        15.9202343827
_cell_length_b        15.9199500627
_cell_length_c         5.7637498713
_cell_angle_alpha        89.9996
_cell_angle_beta        89.9988
_cell_angle_gamma        90.0021
_cell_volume          1460.818578
_space_group_crystal_system tetragonal
_space_group_IT_number 82
_space_group_name_H-M_alt 'I-4'
_space_group_name_Hall 'I -4'
loop_
_symmetry_equiv_pos_site_id
_symmetry_equiv_pos_as_xyz
 1 'x,y,z'
 2 '-1/2+y,-1/2-x,-1/2-z'
 3 '-x,-y,z'
 4 '-y,x,-z'
 5 '-1/2+x,-1/2+y,-1/2+z'
 6 'y,-x,-z'
 7 '-1/2-x,-1/2-y,-1/2+z'
 8 '-1/2-y,-1/2+x,-1/2-z'
loop_
_atom_site_label
_atom_site_type_symbol
_atom_site_fract_x
_atom_site_fract_y
_atom_site_fract_z
C1    C     0.05701322008272 0.71642869980067 0.05018925059377 
C2    C     0.07571236980830 0.63182008980689 0.05581791939015 
C3    C     0.12325100024869 0.59441209987189 0.87589412978869 
C4    C     0.15219833973234 0.64259725989870 0.69366101065323 
C5    C     0.13548675972051 0.73011704022658 0.68438841976165 
C6    C     0.08627030001144 0.76775482007911 0.86555394966045 
C7    C     0.06950783996306 0.85529183004553 0.85468423040091 
C8    C     0.10044450990701 0.90350009999974 0.67489257937138 
C9    C     0.15004766020144 0.86658182017582 0.49848640969006 
C10   C     0.16694665023006 0.78164845000592 0.50306395056726 
H1    H     0.02010224023186 0.74503804981297 0.18843043978378 
H2    H     0.05388615004122 0.59348879999831 0.20029536027383 
H3    H     0.13651866030025 0.52734572985019 0.88048637068586 
H4    H     0.18883501976418 0.61408467993338 0.55477015040422 
H5    H     0.03184032004772 0.88351340022341 0.99172127999388 
H6    H     0.08708108970735 0.97056270022727 0.66648290057507 
H7    H     0.17474929983796 0.90568941999895 0.35940628989919 
H8    H     0.20494933999690 0.75289526999975 0.36762051935517 
