data_stdin
_audit_creation_method 'critic2'
_audit_creation_date 2023-8-11
_chemical_formula_sum 'C10 H8'
_cell_formula_units_Z 2
_cell_length_a         6.2764625816
_cell_length_b         7.3224395000
_cell_length_c         7.9585278741
_cell_angle_alpha        90.0000
_cell_angle_beta        75.1131
_cell_angle_gamma        90.0000
_cell_volume           353.489131
_space_group_crystal_system monoclinic
_space_group_IT_number 4
_space_group_name_H-M_alt 'P2_1'
_space_group_name_Hall 'P 2yb'
loop_
_symmetry_equiv_pos_site_id
_symmetry_equiv_pos_as_xyz
 1 'x,y,z'
 2 '-x,-1/2+y,-z'
loop_
_atom_site_label
_atom_site_type_symbol
_atom_site_fract_x
_atom_site_fract_y
_atom_site_fract_z
C1    C     0.08214030058358 0.01687532044848 0.34268211942638 
C2    C     0.11053073045303 0.98159165983972 0.16814996049180 
C3    C     0.94149254994300 0.89627623940541 0.10816497031295 
C4    C     0.74552084932002 0.84834408040227 0.22409644062630 
C5    C     0.71065429050082 0.88286876043216 0.40474380967037 
C6    C     0.88283269982698 0.96862419950663 0.46529796001880 
C7    C     0.84743603021994 0.00403459938735 0.64584760038552 
C8    C     0.65144784992597 0.95537591065095 0.76142779038236 
C9    C     0.48274992918387 0.86882823012191 0.70194461048381 
C10   C     0.51142587038843 0.83408174977573 0.52716489050667 
H1    H     0.21244553951498 0.08240311016543 0.38840960041826 
H2    H     0.26381357002240 0.02051519996697 0.07558371971641 
H3    H     0.96628561011921 0.86797427963629 0.97014227046066 
H4    H     0.61420527926500 0.78251172007182 0.17954181006406 
H5    H     0.97722069920030 0.07098437968827 0.69146845058831 
H6    H     0.62736896949596 0.98313830979540 0.89955024023312 
H7    H     0.33016045037951 0.82787004975700 0.79431220022020 
H8    H     0.38185438073373 0.76804177964946 0.48096449000898 
