data_stdin
_audit_creation_method 'critic2'
_audit_creation_date 2023-8-11
_chemical_formula_sum 'C10 H8'
_cell_formula_units_Z 4
_cell_length_a         7.9833409338
_cell_length_b         7.0580765900
_cell_length_c        13.4647513063
_cell_angle_alpha        90.0000
_cell_angle_beta        74.5147
_cell_angle_gamma        90.0000
_cell_volume           731.157257
_space_group_crystal_system monoclinic
_space_group_IT_number 14
_space_group_name_H-M_alt 'P2_1/c'
_space_group_name_Hall '-P 2ybc'
loop_
_symmetry_equiv_pos_site_id
_symmetry_equiv_pos_as_xyz
 1 'x,y,z'
 2 '-x,-y,-z'
 3 '-x,-1/2+y,-1/2-z'
 4 'x,-1/2-y,-1/2+z'
loop_
_atom_site_label
_atom_site_type_symbol
_atom_site_fract_x
_atom_site_fract_y
_atom_site_fract_z
C1    C     0.55351052044043 0.86983736596788 0.73526221789680 
C2    C     0.56987703393676 0.89315388952415 0.63139214946714 
C3    C     0.71158845955775 0.99642742298089 0.56916225173530 
C4    C     0.83440204879704 0.07508681386156 0.61210247603419 
C5    C     0.82193611610678 0.05252364247110 0.71861777953215 
C6    C     0.67844645935535 0.94745376790360 0.78144074713124 
C7    C     0.66594501434351 0.92497461089438 0.88796971319774 
C8    C     0.78876357998174 0.00364595120728 0.93089918094826 
C9    C     0.93056989348896 0.10677508132430 0.86864556537139 
C10   C     0.94693101382392 0.13003767092210 0.76477566119769 
H1    H     0.44409208129976 0.79165279470188 0.78327655431768 
H2    H     0.47299130869232 0.83129095672402 0.59748138305478 
H3    H     0.72412928871624 0.01351772836731 0.48706556092892 
H4    H     0.94353964178532 0.15493381106117 0.56478971098701 
H5    H     0.55684184070597 0.84506014631423 0.93527128258078 
H6    H     0.77619316350570 0.98659905990731 0.01300106611910 
H7    H     0.02745713858270 0.16862421574802 0.90255330647006 
H8    H     0.05639268281947 0.20812066353340 0.71673538224547 
