data_stdin
_audit_creation_method 'critic2'
_audit_creation_date 2023-8-11
_chemical_formula_sum 'C10 H8'
_cell_formula_units_Z 4
_cell_length_a         5.9190799740
_cell_length_b         4.5495907300
_cell_length_c        27.5831947206
_cell_angle_alpha        90.0003
_cell_angle_beta        83.5420
_cell_angle_gamma        90.0001
_cell_volume           738.085203
_space_group_crystal_system monoclinic
_space_group_IT_number 14
_space_group_name_H-M_alt 'P2_1/c'
_space_group_name_Hall '-P 2ybc'
loop_
_symmetry_equiv_pos_site_id
_symmetry_equiv_pos_as_xyz
 1 'x,y,z'
 2 '-x,-y,-z'
 3 '-x,-1/2+y,-1/2-z'
 4 'x,-1/2-y,-1/2+z'
loop_
_atom_site_label
_atom_site_type_symbol
_atom_site_fract_x
_atom_site_fract_y
_atom_site_fract_z
C1    C     0.09882384971579 0.82563280103476 0.90980163985589 
C2    C     0.22849733054705 0.87093604969281 0.94761855005605 
C3    C     0.43787852937977 0.72193786060955 0.94846744000665 
C4    C     0.51486254081916 0.53118304910553 0.91137796994106 
C5    C     0.38633680950837 0.48117338088389 0.87172067001594 
C6    C     0.17318209081822 0.63075779957610 0.87108205991051 
C7    C     0.04398825019625 0.57978683910438 0.83158117010033 
C8    C     0.12080086001876 0.38920502094657 0.79445920991415 
C9    C     0.33120614039464 0.24200795984082 0.79500716997122 
C10   C     0.46087169004366 0.28725965040785 0.83285164988647 
H1    H     0.93831364990846 0.94155745026982 0.90876698015407 
H2    H     0.17143464928230 0.02515754981039 0.97661576997952 
H3    H     0.53816106937808 0.75687260066111 0.97871599989171 
H4    H     0.67567305956933 0.41564765986472 0.91218111996925 
H5    H     0.88209834028281 0.69344944038140 0.83117511016371 
H6    H     0.01885202073402 0.35012104054279 0.76460728010428 
H7    H     0.38967980980598 0.09070446042748 0.76564586016251 
H8    H     0.62236715988152 0.17312303097780 0.83356092006980 
