data_stdin
_audit_creation_method 'critic2'
_audit_creation_date 2023-8-11
_chemical_formula_sum 'C10 H8'
_cell_formula_units_Z 4
_cell_length_a        27.2758703976
_cell_length_b         5.8283669300
_cell_length_c         4.6931959228
_cell_angle_alpha        89.9999
_cell_angle_beta        90.0088
_cell_angle_gamma        89.9999
_cell_volume           746.095092
_space_group_crystal_system orthorhombic
_space_group_IT_number 29
_space_group_name_H-M_alt 'Pca2_1'
_space_group_name_Hall 'P 2c -2ac'
loop_
_symmetry_equiv_pos_site_id
_symmetry_equiv_pos_as_xyz
 1 'x,y,z'
 2 '-x,-y,-1/2+z'
 3 '-1/2-x,y,-1/2+z'
 4 '-1/2+x,-y,z'
loop_
_atom_site_label
_atom_site_type_symbol
_atom_site_fract_x
_atom_site_fract_y
_atom_site_fract_z
C1    C     0.33864301728502 0.10712081206429 0.14437850161262 
C2    C     0.30352437252726 0.04582625847818 0.34173572804882 
C3    C     0.30629367816535 0.83181943630638 0.48365563325511 
C4    C     0.34437830610096 0.68330957662311 0.42687591233320 
C5    C     0.38125876963416 0.74165170634595 0.22615816005997 
C6    C     0.37839082495634 0.95818662820020 0.08159776893179 
C7    C     0.41529280180751 0.01603138700980 0.88066415445093 
C8    C     0.45343485277218 0.86747038367179 0.82448203348389 
C9    C     0.45625269421867 0.65395919644234 0.96741759399179 
C10   C     0.42101620589261 0.59285857751870 0.16409874479406 
H1    H     0.33643490074464 0.27164610638682 0.03472315777579 
H2    H     0.27333854614591 0.16205041288713 0.38968319181845 
H3    H     0.27840066314409 0.78667371983779 0.63985418799824 
H4    H     0.34698401519865 0.51939187082401 0.53756510353116 
H5    H     0.41282022489232 0.17997409365811 0.76992146999654 
H6    H     0.48133942338307 0.91349250591719 0.66864188327291 
H7    H     0.48632947279425 0.53702229365030 0.92056702011379 
H8    H     0.42312040351099 0.42834859298281 0.27391229123904 
