data_stdin
_audit_creation_method 'critic2'
_audit_creation_date 2023-8-11
_chemical_formula_sum 'C10 H8'
_cell_formula_units_Z 4
_cell_length_a        18.8904885442
_cell_length_b         5.9321380910
_cell_length_c         6.4891504628
_cell_angle_alpha        90.0006
_cell_angle_beta        90.0098
_cell_angle_gamma        90.0023
_cell_volume           727.180592
_space_group_crystal_system triclinic
_space_group_IT_number 1
_space_group_name_H-M_alt 'P1'
_space_group_name_Hall 'P 1'
loop_
_symmetry_equiv_pos_site_id
_symmetry_equiv_pos_as_xyz
 1 'x,y,z'
loop_
_atom_site_label
_atom_site_type_symbol
_atom_site_fract_x
_atom_site_fract_y
_atom_site_fract_z
C1    C     0.55678050025205 0.20722452025977 0.95795167069361 
C2    C     0.44313580981944 0.79290871036607 0.45784693045536 
C3    C     0.94326041984102 0.70710960077533 0.45796075940632 
C4    C     0.05665620995188 0.29276017007223 0.95806644054888 
C5    C     0.54390247024881 0.35803355939887 0.80057997042515 
C6    C     0.45608208996458 0.64207979013153 0.30055235060950 
C7    C     0.95614164997431 0.85783688078505 0.30053961991317 
C8    C     0.04383902986207 0.14204617038792 0.80057089036800 
C9    C     0.57910409985153 0.56859832084208 0.79638157025610 
C10   C     0.42094599025528 0.43140964031343 0.29635093923703 
C11   C     0.92099956981541 0.06848818001112 0.29633740941951 
C12   C     0.07904302985780 0.93149415057874 0.79637252076043 
C13   C     0.62623236991386 0.62562974074076 0.94995676970996 
C14   C     0.37381550975715 0.37429078047952 0.44984504992501 
C15   C     0.87393387025169 0.12569474003495 0.44996449923743 
C16   C     0.12610719986995 0.87437565040465 0.95007757955889 
C17   C     0.63975516011615 0.47598540028285 0.11625758930449 
C18   C     0.36024124990973 0.52392450013004 0.61610299955080 
C19   C     0.86041248005786 0.97613928003003 0.61632170047152 
C20   C     0.13958119007656 0.02394835041001 0.11647527056732 
C21   C     0.60455277012397 0.26144958976995 0.11979156965823 
C22   C     0.39537344015444 0.73857132014989 0.61963224927663 
C23   C     0.89554405012350 0.76150618929917 0.61983765958106 
C24   C     0.10438267015961 0.23847653075172 0.11999575008107 
C25   C     0.61816764993987 0.11194694984683 0.28620338044086 
C26   C     0.38174484024708 0.88800090012896 0.78607621925335 
C27   C     0.88192614008327 0.61207651042729 0.78628564020009 
C28   C     0.11799084997645 0.38798561956990 0.28640908021958 
C29   C     0.66370186994473 0.17148910960293 0.44323748947001 
C30   C     0.33627559999085 0.82826962995191 0.94316500017888 
C31   C     0.83644708003360 0.67176377931054 0.94335561929327 
C32   C     0.16353451993391 0.32848696940549 0.44342389057465 
C33   C     0.69724558015549 0.38482042050356 0.44156384043864 
C34   C     0.30280031023690 0.61483253970414 0.94149592023843 
C35   C     0.80296444996434 0.88518109916595 0.94168655944516 
C36   C     0.19708113003493 0.11516886996589 0.44175269989165 
C37   C     0.68579330978038 0.53285745978994 0.28135208060483 
C38   C     0.31425733997864 0.46687822000896 0.78123148050105 
C39   C     0.81443015982537 0.03316707078601 0.78145335951771 
C40   C     0.18561682980333 0.96709415951912 0.28157271047181 
H1    H     0.53024167023224 0.04398725044096 0.96068982070846 
H2    H     0.46962182981630 0.95622916006026 0.46059314003701 
H3    H     0.96974806989412 0.54380000920750 0.46071167977533 
H4    H     0.03011858024206 0.45599107938713 0.96080906927747 
H5    H     0.50707407988831 0.31684504032978 0.67714225020988 
H6    H     0.49292836998716 0.68331281065117 0.17720820970853 
H7    H     0.99293526023161 0.81653458043857 0.17708627975665 
H8    H     0.00706118017213 0.18330052960952 0.67702956047381 
H9    H     0.56888357014208 0.68416431974261 0.66964900988984 
H10   H     0.43122625989862 0.31582258935353 0.16968786061752 
H11   H     0.93120370982907 0.18394947023074 0.16952362016897 
H12   H     0.06889245978188 0.81604443038169 0.66949698931502 
H13   H     0.65370457992466 0.78692014937452 0.94556725025937 
H14   H     0.34639582981807 0.21291253005192 0.44543490973942 
H15   H     0.84651252985477 0.28706190953597 0.44555322945140 
H16   H     0.15357833995436 0.71309169012745 0.94568701051582 
H17   H     0.59172094982294 0.94872995985063 0.28846872058228 
H18   H     0.40813662980552 0.05130562994314 0.78834384929992 
H19   H     0.90832178004619 0.44878655926986 0.78854356051809 
H20   H     0.09154361974288 0.55119307059345 0.28866442967174 
H21   H     0.67334996007246 0.05582107017428 0.57049876988172 
H22   H     0.32662890026173 0.94387201071145 0.07046892993382 
H23   H     0.82679405989465 0.55613322985317 0.07063091018715 
H24   H     0.17319438010084 0.44419315941130 0.57064976962795 
H25   H     0.73126116990304 0.43470674061447 0.56910521957213 
H26   H     0.26882946001603 0.56481368037990 0.06906391040816 
H27   H     0.76897020025244 0.93514260053546 0.06921623930705 
H28   H     0.23112027979888 0.06534182983030 0.56925432953169 
H29   H     0.71116205990698 0.69770591916278 0.28211945995616 
H30   H     0.28894230982661 0.30195313047033 0.78199302033039 
H31   H     0.78911256985963 0.19808353055392 0.78221423071805 
H32   H     0.21098481014429 0.80224926030522 0.28233950045112 
