data_stdin
_audit_creation_method 'critic2'
_audit_creation_date 2023-8-11
_chemical_formula_sum 'C10 H8'
_cell_formula_units_Z 4
_cell_length_a         7.8785722400
_cell_length_b        16.9817954301
_cell_length_c         5.7458973925
_cell_angle_alpha        90.0015
_cell_angle_beta        90.0001
_cell_angle_gamma        89.9998
_cell_volume           768.756839
_space_group_crystal_system orthorhombic
_space_group_IT_number 33
_space_group_name_H-M_alt 'Pna2_1'
_space_group_name_Hall 'P 2c -2n'
loop_
_symmetry_equiv_pos_site_id
_symmetry_equiv_pos_as_xyz
 1 'x,y,z'
 2 '-x,-y,-1/2+z'
 3 '-1/2-x,-1/2+y,-1/2+z'
 4 '-1/2+x,-1/2-y,z'
loop_
_atom_site_label
_atom_site_type_symbol
_atom_site_fract_x
_atom_site_fract_y
_atom_site_fract_z
C1    C     0.70924489042420 0.36199438012307 0.01072809072572 
C2    C     0.86001304031022 0.39849867973285 0.95436480034782 
C3    C     0.87600991962860 0.44100510984383 0.74349057956874 
C4    C     0.74064151041850 0.44646658005623 0.59213622921434 
C5    C     0.58412363952031 0.40869598977795 0.64371264993004 
C6    C     0.56814418029816 0.36541293007686 0.85729518014392 
C7    C     0.41255162025091 0.32665403989461 0.90651518925217 
C8    C     0.27853749947981 0.33023321012793 0.75226034080190 
C9    C     0.29381008042077 0.37389261992059 0.54350818049368 
C10   C     0.44300563948304 0.41244577000457 0.49066355993734 
H1    H     0.69647441986830 0.32994254019522 0.17419363081413 
H2    H     0.96815912977827 0.39449150010073 0.07190035021724 
H3    H     0.99619948952817 0.46918378013779 0.70102233958895 
H4    H     0.75108427967772 0.47974408018465 0.43047967970761 
H5    H     0.40103240987297 0.29364366004457 0.06834783036328 
H6    H     0.16064589982274 0.29931224013403 0.78969573072789 
H7    H     0.18669353955899 0.37713278986230 0.42401071081709 
H8    H     0.45446890054828 0.44601996024235 0.33015140050403 
