data_stdin
_audit_creation_method 'critic2'
_audit_creation_date 2023-8-11
_chemical_formula_sum 'C10 H8'
_cell_formula_units_Z 18
_cell_length_a        18.8309364595
_cell_length_b        18.8142275935
_cell_length_c        11.2721862836
_cell_angle_alpha        90.0158
_cell_angle_beta        89.9103
_cell_angle_gamma       120.0138
_cell_volume          3458.088065
_space_group_crystal_system triclinic
_space_group_IT_number 2
_space_group_name_H-M_alt 'P-1'
_space_group_name_Hall '-P 1'
loop_
_symmetry_equiv_pos_site_id
_symmetry_equiv_pos_as_xyz
 1 'x,y,z'
 2 '-x,-y,-z'
 3 '-1/3+x,-2/3+y,-2/3+z'
 4 '-1/3-x,-2/3-y,-2/3-z'
 5 '-2/3+x,-1/3+y,-1/3+z'
 6 '-2/3-x,-1/3-y,-1/3-z'
loop_
_atom_site_label
_atom_site_type_symbol
_atom_site_fract_x
_atom_site_fract_y
_atom_site_fract_z
C1    C     0.12312012019531 0.14252722989992 0.71603336988534 
C2    C     0.85730998992373 0.98060364994200 0.71501633988217 
C3    C     0.01921977013406 0.87679966976094 0.71538722980229 
C4    C     0.08216213999090 0.12792583972138 0.82273034983501 
C5    C     0.87206440985155 0.95434003992219 0.82154494032594 
C6    C     0.04540142983835 0.91778935975829 0.82196624986275 
C7    C     0.05538913979742 0.18155428991384 0.86450154971403 
C8    C     0.81851201022577 0.87395795997724 0.86358200007620 
C9    C     0.12565149017980 0.94449126021268 0.86387462993106 
C10   C     0.07018684024157 0.24945646006061 0.79877296979937 
C11   C     0.75054240989203 0.82078016982344 0.79828151997611 
C12   C     0.17878097019975 0.92959284004040 0.79839204989781 
C13   C     0.11353161000933 0.26722820978154 0.68974048012900 
C14   C     0.73262867035518 0.84625773019274 0.68942685985050 
C15   C     0.15338180988430 0.88622091997873 0.68948415015096 
C16   C     0.14083866005503 0.21282932014413 0.64758545964064 
C17   C     0.78694401021170 0.92794901002495 0.64701371997882 
C18   C     0.07182776984522 0.85898212972361 0.64719374028063 
C19   C     0.18565294978836 0.23164683003791 0.53956760011332 
C20   C     0.76800642007101 0.95385605026374 0.53917133997955 
C21   C     0.04601219999973 0.81416092007185 0.53928518971895 
C22   C     0.20347177985928 0.30147398973928 0.47639622007092 
C23   C     0.69815257018735 0.90177148001739 0.47639402982778 
C24   C     0.09805109969216 0.79627867988249 0.47634083013575 
C25   C     0.17611083002157 0.35485923016932 0.51765115023090 
C26   C     0.64485221973122 0.82103539993883 0.51789311973434 
C27   C     0.17865286998959 0.82358147019025 0.51772235959186 
C28   C     0.13189459013286 0.33785477998926 0.62167434023237 
C29   C     0.66196356990233 0.79391156004211 0.62176438957203 
C30   C     0.20568498013820 0.86779547030576 0.62164725013182 
H1    H     0.14244161983412 0.10033825998584 0.68311547031182 
H2    H     0.89943166989615 0.04209632006140 0.68187725994928 
H3    H     0.95782990033129 0.85753548030585 0.68236302992730 
H4    H     0.07048313014424 0.07447458017637 0.87491908029566 
H5    H     0.92558458032176 0.99617146016458 0.87336214956474 
H6    H     0.00361150988197 0.92955993975736 0.87393873989136 
H7    H     0.02389213000070 0.16957333971847 0.94956782987847 
H8    H     0.83061146986591 0.85450289024426 0.94851010969246 
H9    H     0.14504681966993 0.97602999969400 0.94883899002045 
H10   H     0.05026577983903 0.29139238020739 0.83070880015174 
H11   H     0.70867258002846 0.75893715027107 0.83042844001808 
H12   H     0.24052181000020 0.94946390022851 0.83043145965406 
H13   H     0.20634882032804 0.19034837030423 0.50796995962630 
H14   H     0.80924357012959 0.01584068992862 0.50738595959467 
H15   H     0.98413078982441 0.79351201016166 0.50758372040550 
H16   H     0.23873411991255 0.31588013969922 0.39437300019890 
H17   H     0.68366274000426 0.92254843969394 0.39448602032110 
H18   H     0.07733890976856 0.76102202982375 0.39439124006925 
H19   H     0.19026470011440 0.40961089994375 0.46699317975916 
H20   H     0.59008269001818 0.78037572974669 0.46753321032785 
H21   H     0.21928428983041 0.80939132006515 0.46723767988393 
H22   H     0.11111777978600 0.37889806009629 0.65446022972681 
H23   H     0.62098386012971 0.73209891994405 0.65473380014597 
H24   H     0.26739022988105 0.88852766986151 0.65452604035665 
