data_stdin
_audit_creation_method 'critic2'
_audit_creation_date 2023-8-11
_chemical_formula_sum 'C10 H8'
_cell_formula_units_Z 4
_cell_length_a        12.9726477549
_cell_length_b         7.6894335704
_cell_length_c         7.4495898787
_cell_angle_alpha        89.9998
_cell_angle_beta        87.3241
_cell_angle_gamma        89.9994
_cell_volume           742.303513
_space_group_crystal_system monoclinic
_space_group_IT_number 14
_space_group_name_H-M_alt 'P2_1/c'
_space_group_name_Hall '-P 2ybc'
loop_
_symmetry_equiv_pos_site_id
_symmetry_equiv_pos_as_xyz
 1 'x,y,z'
 2 '-x,-y,-z'
 3 '-x,-1/2+y,-1/2-z'
 4 'x,-1/2-y,-1/2+z'
loop_
_atom_site_label
_atom_site_type_symbol
_atom_site_fract_x
_atom_site_fract_y
_atom_site_fract_z
C1    C     0.39171520998908 0.10508921968569 0.91225154060577 
C2    C     0.43358646990405 0.26773391957806 0.88187851938653 
C3    C     0.37581901018563 0.41872446050321 0.92721654969561 
C4    C     0.27776942030266 0.40436421007971 0.00509957940509 
C5    C     0.23278788033665 0.23892789057904 0.03959631023677 
C6    C     0.29075571963744 0.08586514053436 0.99104487010796 
C7    C     0.24518168981004 0.92027589058284 0.02313834992774 
C8    C     0.14694685018170 0.90587974992715 0.10091192004409 
C9    C     0.08999419019014 0.05709194047944 0.14950815944170 
C10   C     0.13204675980893 0.21962084048528 0.11930762977833 
H1    H     0.43612157027295 0.98895398980913 0.87674988948925 
H2    H     0.51146617990887 0.28026012966047 0.82213340961621 
H3    H     0.40978486026052 0.54623818019838 0.90088874038510 
H4    H     0.23286913020044 0.52001091025274 0.04078075933296 
H5    H     0.28931182995715 0.80440981941878 0.98463922949545 
H6    H     0.11247504000473 0.77821075944920 0.12454312933285 
H7    H     0.01208632028724 0.04462356003882 0.20887756960934 
H8    H     0.08817733016109 0.33603741033695 0.15634322029982 
