data_stdin
_audit_creation_method 'critic2'
_audit_creation_date 2023-8-11
_chemical_formula_sum 'C10 H8'
_cell_formula_units_Z 8
_cell_length_a         5.8589659287
_cell_length_b         5.8590331912
_cell_length_c        42.0641358001
_cell_angle_alpha        90.0010
_cell_angle_beta        90.0031
_cell_angle_gamma        90.0007
_cell_volume          1443.972429
_space_group_crystal_system tetragonal
_space_group_IT_number 92
_space_group_name_H-M_alt 'P4_12_12'
_space_group_name_Hall 'P 4abw 2nw'
loop_
_symmetry_equiv_pos_site_id
_symmetry_equiv_pos_as_xyz
 1 'x,y,z'
 2 '-1/2-y,-1/2+x,-3/4+z'
 3 '-x,-y,-1/2+z'
 4 '-1/2+y,-1/2-x,-1/4+z'
 5 '-1/2+x,-1/2-y,-1/4-z'
 6 '-y,-x,-1/2-z'
 7 '-1/2-x,-1/2+y,-3/4-z'
 8 'y,x,-z'
loop_
_atom_site_label
_atom_site_type_symbol
_atom_site_fract_x
_atom_site_fract_y
_atom_site_fract_z
C1    C     0.47466350971145 0.84966785073708 0.93782823994940 
C2    C     0.63448651967765 0.81464794973783 0.91427196998132 
C3    C     0.63056084965660 0.61249960083797 0.89588220993881 
C4    C     0.46630775068550 0.44845184921527 0.90134500007597 
C5    C     0.29800033974033 0.47977651919347 0.92525766002965 
C6    C     0.30254700973335 0.68478658979946 0.94396593991670 
C7    C     0.13437504930014 0.71638034939363 0.96787988988735 
C8    C     0.96930139073487 0.55304674057286 0.97323362992491 
C9    C     0.96462003031454 0.35128372918344 0.95478910006346 
C10   C     0.12511987948850 0.31574225037237 0.93134105993488 
H1    H     0.47679800018572 0.00536887938562 0.95199124011131 
H2    H     0.76547535918398 0.94196989950698 0.90965977007100 
H3    H     0.75918520918681 0.58869389019019 0.87749151004407 
H4    H     0.46346681080168 0.29172490062216 0.88737384005835 
H5    H     0.13775187968502 0.87341822074221 0.98174906004853 
H6    H     0.84054983059997 0.57884077945098 0.99153464001865 
H7    H     0.83190337969834 0.22486699026363 0.95901637007989 
H8    H     0.12183622938600 0.15989326948050 0.91723996999056 
