data_stdin
_audit_creation_method 'critic2'
_audit_creation_date 2023-8-11
_chemical_formula_sum 'C10 H8'
_cell_formula_units_Z 2
_cell_length_a        11.0247689906
_cell_length_b         3.9498978320
_cell_length_c         8.0645545669
_cell_angle_alpha        90.0002
_cell_angle_beta        84.3668
_cell_angle_gamma        89.9982
_cell_volume           349.488826
_space_group_crystal_system triclinic
_space_group_IT_number 1
_space_group_name_H-M_alt 'P 1'
_space_group_name_Hall 'P 1'
loop_
_symmetry_equiv_pos_site_id
_symmetry_equiv_pos_as_xyz
 1 'x,y,z'
loop_
_atom_site_label
_atom_site_type_symbol
_atom_site_fract_x
_atom_site_fract_y
_atom_site_fract_z
C1    C     0.62650948952105 0.00467658112335 0.38523805043060 
C2    C     0.37349156976065 0.50467835072034 0.61476100938606 
C3    C     0.68035426966457 0.03822680983113 0.53154534956785 
C4    C     0.31964650003420 0.53822821963803 0.46845413943823 
C5    C     0.80000951999078 0.91701300994849 0.54268420988028 
C6    C     0.19999034978580 0.41701289066651 0.45731630060735 
C7    C     0.86377478020857 0.76294501050861 0.40767870051836 
C8    C     0.13622449033105 0.26294373001331 0.59232231053275 
C9    C     0.81069740972932 0.72188158020982 0.25567272994264 
C10   C     0.18930216039288 0.22188082085598 0.74432789016454 
C11   C     0.68930117003291 0.84519270029772 0.24433118995425 
C12   C     0.31069924997486 0.34519354065340 0.75566819052752 
C13   C     0.63622489030357 0.80413012065127 0.09232448980753 
C14   C     0.36377583034298 0.30413148974870 0.90767450971099 
C15   C     0.69999049990231 0.65005755906916 0.95732055981985 
C16   C     0.30000961962957 0.15005773910227 0.04267893025561 
C17   C     0.81964585969739 0.52884459971353 0.96845859049540 
C18   C     0.18035337976619 0.02884316964506 0.03154190993174 
C19   C     0.87349023022630 0.56240003108841 0.11476607988362 
C20   C     0.12650872044159 0.06239826907692 0.88523484976768 
H1    H     0.53487767990510 0.10220979072026 0.37670408985671 
H2    H     0.46512399979062 0.60221254113098 0.62329440029051 
H3    H     0.63107482983310 0.16045275038930 0.63891538985126 
H4    H     0.36892630030998 0.66045500964474 0.36108364987792 
H5    H     0.84101874979297 0.94424434889697 0.65940971974583 
H6    H     0.15898091020037 0.44424399081422 0.34059107995733 
H7    H     0.95579234023395 0.66884766938599 0.41668246990716 
H8    H     0.04420627002147 0.16884531975543 0.58331917000332 
H9    H     0.54420942024139 0.89823618097544 0.08331322963222 
H10   H     0.45579195984380 0.39823863948447 0.91668514980078 
H11   H     0.65898117039116 0.62282989110165 0.84059484015578 
H12   H     0.34101916017697 0.12283029980881 0.15940437942733 
H13   H     0.86892699962742 0.40663120124686 0.86108639984038 
H14   H     0.13107188964880 0.90662883059835 0.13891453003956 
H15   H     0.96512563954765 0.46488977903795 0.12329677005878 
H16   H     0.03487270015536 0.96488698053385 0.87670472943964 
