data_stdin
_audit_creation_method 'critic2'
_audit_creation_date 2023-8-11
_chemical_formula_sum 'C10 H8'
_cell_formula_units_Z 8
_cell_length_a        15.7470143600
_cell_length_b         5.6135420762
_cell_length_c        17.4571333200
_cell_angle_alpha        90.0011
_cell_angle_beta        90.0001
_cell_angle_gamma        89.9936
_cell_volume          1543.149959
_space_group_crystal_system orthorhombic
_space_group_IT_number 20
_space_group_name_H-M_alt 'C222_1'
_space_group_name_Hall 'C 2c 2'
loop_
_symmetry_equiv_pos_site_id
_symmetry_equiv_pos_as_xyz
 1 'x,y,z'
 2 '-x,-y,-1/2+z'
 3 '-x,y,-1/2-z'
 4 'x,-y,-z'
 5 '-1/2+x,-1/2+y,z'
 6 '-1/2-x,-1/2-y,-1/2+z'
 7 '-1/2-x,-1/2+y,-1/2-z'
 8 '-1/2+x,-1/2-y,-z'
loop_
_atom_site_label
_atom_site_type_symbol
_atom_site_fract_x
_atom_site_fract_y
_atom_site_fract_z
C1    C     0.16336180004470 0.81244877990731 0.31831056976778 
C2    C     0.25014421982922 0.78023930056596 0.32160886006663 
C3    C     0.28464269990477 0.58341765977379 0.36170278985346 
C4    C     0.23193845975108 0.42037774935217 0.39682008011638 
C5    C     0.14239179977503 0.44687517006637 0.39348094027562 
C6    C     0.10731075018248 0.64856006975870 0.35403654021580 
C7    C     0.01772750016919 0.67675279070276 0.35199042986508 
C8    C     0.96507075995030 0.51249085063219 0.38646800983775 
C9    C     0.99974506992443 0.31197413944811 0.42444983021512 
C10   C     0.08639897997466 0.28042300017873 0.42788577976021 
H1    H     0.13694472974098 0.96574737060383 0.28839070999991 
H2    H     0.29194357999379 0.90620511052930 0.29278009979933 
H3    H     0.35323605988643 0.56023292956519 0.36412791020330 
H4    H     0.25812181998420 0.26792454032448 0.42743897003172 
H5    H     0.99134255004360 0.83148096962776 0.32278667003761 
H6    H     0.89649749008983 0.53687880048267 0.38471921976614 
H7    H     0.95770589008783 0.18429211924522 0.45210860007129 
H8    H     0.11336942013622 0.12647676925443 0.45687184004314 
