data_stdin
_audit_creation_method 'critic2'
_audit_creation_date 2023-8-11
_chemical_formula_sum 'C10 H8'
_cell_formula_units_Z 4
_cell_length_a         8.3234216610
_cell_length_b         7.5492378210
_cell_length_c        12.1250372795
_cell_angle_alpha        90.0011
_cell_angle_beta        68.1111
_cell_angle_gamma        90.0005
_cell_volume           706.957160
_space_group_crystal_system monoclinic
_space_group_IT_number 14
_space_group_name_H-M_alt 'P2_1/c'
_space_group_name_Hall '-P 2ybc'
loop_
_symmetry_equiv_pos_site_id
_symmetry_equiv_pos_as_xyz
 1 'x,y,z'
 2 '-x,-y,-z'
 3 '-x,-1/2+y,-1/2-z'
 4 'x,-1/2-y,-1/2+z'
loop_
_atom_site_label
_atom_site_type_symbol
_atom_site_fract_x
_atom_site_fract_y
_atom_site_fract_z
C1    C     0.87469042985742 0.76660889055882 0.00356839963537 
C2    C     0.74611304972314 0.84105736999465 0.97254888007160 
C3    C     0.78921660040455 0.94096168042069 0.86657698026997 
C4    C     0.96004960971043 0.96461746036440 0.79330077024899 
C5    C     0.09532823957228 0.88862671960224 0.82208974990111 
C6    C     0.05174907954902 0.78716087017132 0.92943077982088 
C7    C     0.18712329990198 0.71109938946364 0.95809188992142 
C8    C     0.35780021995797 0.73329725044830 0.88412656976706 
C9    C     0.40102344967704 0.83400455972207 0.77852622998911 
C10   C     0.27235062993583 0.91018332005074 0.74844716989208 
H1    H     0.84290168946311 0.69224908933869 0.08603029024537 
H2    H     0.61085973981964 0.82688481953258 0.03106788020522 
H3    H     0.68718628957239 0.00231380969247 0.84387705989939 
H4    H     0.99311795026666 0.04482624971695 0.71326485031473 
H5    H     0.15362354989653 0.63622994981917 0.04033536961874 
H6    H     0.46057892982508 0.67540030041803 0.90754155029390 
H7    H     0.53650689074766 0.85253497992549 0.72186958962673 
H8    H     0.30417004971713 0.98946123979786 0.66793516976204 
