data_stdin
_audit_creation_method 'critic2'
_audit_creation_date 2023-8-11
_chemical_formula_sum 'C10 H8'
_cell_formula_units_Z 4
_cell_length_a        10.7742754011
_cell_length_b        14.1277955502
_cell_length_c         4.6349822510
_cell_angle_alpha        89.9988
_cell_angle_beta        90.0003
_cell_angle_gamma        90.0011
_cell_volume           705.521981
_space_group_crystal_system orthorhombic
_space_group_IT_number 19
_space_group_name_H-M_alt 'P2_12_12_1'
_space_group_name_Hall 'P 2ac 2ab'
loop_
_symmetry_equiv_pos_site_id
_symmetry_equiv_pos_as_xyz
 1 'x,y,z'
 2 '-x,-1/2+y,-1/2-z'
 3 '-1/2-x,-y,-1/2+z'
 4 '-1/2+x,-1/2-y,-z'
loop_
_atom_site_label
_atom_site_type_symbol
_atom_site_fract_x
_atom_site_fract_y
_atom_site_fract_z
C1    C     0.13357813019349 0.55220217025424 0.73655629071210 
C2    C     0.06584131005963 0.47523838032240 0.64407482080766 
C3    C     0.94558055984001 0.45830464981645 0.75503961005671 
C4    C     0.89445266991755 0.51895102977374 0.95559696094062 
C5    C     0.96154865956229 0.59904715993452 0.05478808960590 
C6    C     0.08404635991763 0.61564422009861 0.94440065018977 
C7    C     0.15123341000324 0.69543633989739 0.04548560080224 
C8    C     0.09959740992323 0.75652715015647 0.24416426002556 
C9    C     0.97870050992067 0.74032072969559 0.35296740051443 
C10   C     0.91165187997023 0.66295028995932 0.26060671916533 
H1    H     0.22534945000310 0.56569578997757 0.64665575979609 
H2    H     0.10367441012792 0.42756941006447 0.48204002103101 
H3    H     0.89413074045130 0.39681404990805 0.67892633928954 
H4    H     0.80167211036677 0.50625650016127 0.04121747013294 
H5    H     0.24437801970916 0.70827391030065 0.96265009913178 
H6    H     0.15183926993688 0.81782674990846 0.31852739947709 
H7    H     0.93970536997647 0.78854904005631 0.51235575987177 
H8    H     0.81953864969646 0.64920545985169 0.34805121908813 
