data_stdin
_audit_creation_method 'critic2'
_audit_creation_date 2023-8-11
_chemical_formula_sum 'C10 H8'
_cell_formula_units_Z 8
_cell_length_a        22.7944076541
_cell_length_b         5.9124711846
_cell_length_c        10.7281852856
_cell_angle_alpha        90.0007
_cell_angle_beta        89.9990
_cell_angle_gamma        90.0075
_cell_volume          1445.851234
_space_group_crystal_system orthorhombic
_space_group_IT_number 61
_space_group_name_H-M_alt 'Pbca'
_space_group_name_Hall '-P 2ac 2ab'
loop_
_symmetry_equiv_pos_site_id
_symmetry_equiv_pos_as_xyz
 1 'x,y,z'
 2 '-x,-y,-z'
 3 '-1/2+x,-1/2-y,-z'
 4 '-1/2-x,-1/2+y,z'
 5 '-x,-1/2+y,-1/2-z'
 6 'x,-1/2-y,-1/2+z'
 7 '-1/2-x,-y,-1/2+z'
 8 '-1/2+x,y,-1/2-z'
loop_
_atom_site_label
_atom_site_type_symbol
_atom_site_fract_x
_atom_site_fract_y
_atom_site_fract_z
C1    C     0.55333711012973 0.82500948029361 0.55760025965342 
C2    C     0.57718127997418 0.66724210071720 0.47765194013902 
C3    C     0.63772827979677 0.67222011059029 0.44871307996506 
C4    C     0.67354113992856 0.83327566068820 0.50215285009208 
C5    C     0.65065231978145 0.99563101983168 0.58678413995779 
C6    C     0.58893162981526 0.99394126990844 0.61355742974539 
C7    C     0.56564316994310 0.16197804976055 0.69422468026619 
C8    C     0.60161144980223 0.32253375045938 0.74773595000503 
C9    C     0.66266232014323 0.32044444977343 0.72384729030248 
C10   C     0.68660635017439 0.16042326038720 0.64537370041925 
H1    H     0.50648620019262 0.82362225925796 0.57755049973093 
H2    H     0.54950307999854 0.53861183991639 0.43525913983258 
H3    H     0.65557250992610 0.54849540033704 0.38385333963008 
H4    H     0.72010912982194 0.83954171017699 0.47921898954914 
H5    H     0.51858723989737 0.16241674067803 0.71253765023346 
H6    H     0.58371709999319 0.45202360011027 0.80906103958969 
H7    H     0.69046409980458 0.44705918962893 0.76780619037715 
H8    H     0.73364233010116 0.15785828957712 0.62756258988083 
