data_stdin
_audit_creation_method 'critic2'
_audit_creation_date 2023-8-11
_chemical_formula_sum 'C10 H8'
_cell_formula_units_Z 6
_cell_length_a         9.8670062441
_cell_length_b         9.8654228684
_cell_length_c        13.5674167492
_cell_angle_alpha        89.9932
_cell_angle_beta        90.0023
_cell_angle_gamma       120.0026
_cell_volume          1143.714450
_space_group_crystal_system trigonal
_space_group_IT_number 152
_space_group_name_H-M_alt 'P3_121'
_space_group_name_Hall 'P 31 2"'
loop_
_symmetry_equiv_pos_site_id
_symmetry_equiv_pos_as_xyz
 1 'x,y,z'
 2 '-y,x-y,-2/3+z'
 3 '-x+y,-x,-1/3+z'
 4 'y,x,-z'
 5 'x-y,-y,-1/3-z'
 6 '-x,-x+y,-2/3-z'
loop_
_atom_site_label
_atom_site_type_symbol
_atom_site_fract_x
_atom_site_fract_y
_atom_site_fract_z
C1    C     0.55485467072338 0.62617796045872 0.63140238985689 
C2    C     0.40356753042825 0.51610432014035 0.60657190995944 
C3    C     0.32012155014272 0.55191561955565 0.53630336011764 
C4    C     0.38921347001611 0.69691618947758 0.49181229996625 
C5    C     0.54467148992284 0.81286467013021 0.51604685972524 
C6    C     0.62970064057135 0.77686391025084 0.58742666975080 
C7    C     0.78664411034189 0.89172536998742 0.60938162006890 
C8    C     0.85725253947565 0.03527166956764 0.56267508971014 
C9    C     0.77317803984269 0.07101092007358 0.49293466032335 
C10   C     0.62017401020058 0.96237896036164 0.47058003991139 
H1    H     0.61978541957227 0.59627818987870 0.68352886997913 
H2    H     0.34907055042193 0.40040459995339 0.63996864027978 
H3    H     0.20168389007222 0.46334667993989 0.51550575975149 
H4    H     0.32600439981198 0.72227739004814 0.43571002018285 
H5    H     0.85172199042331 0.86297325026768 0.66221164990737 
H6    H     0.97871562034614 0.12128007034188 0.57871034963168 
H7    H     0.82881874994587 0.18499119045384 0.45713818964747 
H8    H     0.55514900981178 0.99039306945960 0.41735604988355 
