data_stdin
_audit_creation_method 'critic2'
_audit_creation_date 2023-8-11
_chemical_formula_sum 'C10 H8'
_cell_formula_units_Z 16
_cell_length_a        27.7436047105
_cell_length_b        27.7487991742
_cell_length_c         3.9390871449
_cell_angle_alpha        89.9997
_cell_angle_beta        90.0030
_cell_angle_gamma        90.0281
_cell_volume          3032.512627
_space_group_crystal_system triclinic
_space_group_IT_number 2
_space_group_name_H-M_alt 'P-1'
_space_group_name_Hall '-P 1'
loop_
_symmetry_equiv_pos_site_id
_symmetry_equiv_pos_as_xyz
 1 'x,y,z'
 2 '-x,-y,-z'
 3 '-1/2+x,-1/2+y,-1/2+z'
 4 '-1/2-x,-1/2-y,-1/2-z'
loop_
_atom_site_label
_atom_site_type_symbol
_atom_site_fract_x
_atom_site_fract_y
_atom_site_fract_z
C1    C     0.35962716984213 0.43036377932893 0.12143228224327 
C2    C     0.31955310368726 0.60963967900975 0.37055211508215 
C3    C     0.68044193817170 0.89034942026251 0.37051348543896 
C4    C     0.64036989223023 0.06963808552459 0.12155343911869 
C5    C     0.35740398811851 0.47987370470950 0.14539065674580 
C6    C     0.27003196883630 0.60744022570668 0.39464108545000 
C7    C     0.72996364364023 0.89254871421643 0.39456061696562 
C8    C     0.64258786526507 0.02012803018766 0.14552945110329 
C9    C     0.39536140305335 0.50861683966362 0.01644815211868 
C10   C     0.24133153416321 0.64541040508831 0.26584818123504 
C11   C     0.75866005900550 0.85457849286236 0.26574423437581 
C12   C     0.60462919971728 0.99138785832696 0.01655052235012 
C13   C     0.43498920617619 0.48740289268276 0.86755153655746 
C14   C     0.26260003052832 0.68502340263493 0.11692767385296 
C15   C     0.73738720088243 0.81496576542739 0.11684108689133 
C16   C     0.56500514266303 0.01260480116318 0.86759977765822 
C17   C     0.43794939625927 0.43662291214300 0.83267997564872 
C18   C     0.31339194584850 0.68795777029069 0.08190103887264 
C19   C     0.68659430403552 0.81203184177430 0.08185371101874 
C20   C     0.56204998563922 0.06338499126583 0.83271428428988 
C21   C     0.39926137091646 0.40747092037629 0.96059764914188 
C22   C     0.34250018858483 0.64926035210109 0.20971125743562 
C23   C     0.65749002033884 0.85072921292302 0.20968940559313 
C24   C     0.60073942013539 0.09253394511440 0.96066824180308 
C25   C     0.40188385746754 0.35674069292801 0.92025952936078 
C26   C     0.39324192804666 0.65186118371458 0.16926542071472 
C27   C     0.60674715928922 0.84812900215914 0.16928174798271 
C28   C     0.59812122573561 0.14326446736736 0.92032491343565 
C29   C     0.44049538352926 0.33567217892140 0.75743911105842 
C30   C     0.41436254921089 0.69045850611209 0.00642165284002 
C31   C     0.58562169759367 0.80953205479931 0.00645423895863 
C32   C     0.55951259548784 0.16433597285759 0.75746353533712 
C33   C     0.47858507013066 0.36442206448002 0.63100270629572 
C34   C     0.38565511355759 0.72855436012328 0.88004868963107 
C35   C     0.61432512997976 0.77143616118998 0.88005726248965 
C36   C     0.52142176219145 0.13558896073382 0.63098937072165 
C37   C     0.47746395907202 0.41375499203266 0.67060201713611 
C38   C     0.33631327966831 0.72745497125835 0.91976595048862 
C39   C     0.66366813925452 0.77253517021861 0.91973412990797 
C40   C     0.52253872150021 0.08625593150006 0.67059174382636 
H1    H     0.33097676090370 0.40813228534155 0.22782097405666 
H2    H     0.34175235245897 0.58097983080207 0.47684341324465 
H3    H     0.65824608358407 0.91900907191057 0.47682556190794 
H4    H     0.66902179338316 0.09186723734410 0.22796409418382 
H5    H     0.32670450152256 0.49702475297666 0.26810409756997 
H6    H     0.25283865161066 0.57675056449381 0.51734423980404 
H7    H     0.74716066735132 0.92323868630202 0.51724230296148 
H8    H     0.67328405830896 0.00297488223209 0.26828867720779 
H9    H     0.39318160876263 0.54769103726775 0.03544829467484 
H10   H     0.20224783242381 0.64325086625723 0.28499403067438 
H11   H     0.79774430873369 0.85673776435153 0.28485971414975 
H12   H     0.60680502405590 0.95231350493278 0.03556399279335 
H13   H     0.46453143341461 0.50943378642992 0.77209986821160 
H14   H     0.24060426417381 0.71457446753957 0.02156638577490 
H15   H     0.75937998992912 0.78541488525196 0.02145849893902 
H16   H     0.53546190686351 0.99057622334752 0.77211959702596 
H17   H     0.37279919158084 0.33450004781072 0.02041748522377 
H18   H     0.41544977711434 0.62277007423773 0.26935764691889 
H19   H     0.58454235910236 0.87722009656109 0.26939140894340 
H20   H     0.62720690844369 0.16550281523623 0.02051148993881 
H21   H     0.44169214319753 0.29667104040736 0.72669224826025 
H22   H     0.45337170557198 0.69164068690801 0.97561692329045 
H23   H     0.54661162687761 0.80835011597617 0.97568073956037 
H24   H     0.55831887005010 0.20333726666986 0.72671573329124 
H25   H     0.50858673143569 0.34752224859283 0.49879307287580 
H26   H     0.40259336316943 0.75854354484582 0.74779187234995 
H27   H     0.59738274266826 0.74144705940103 0.74781727842483 
H28   H     0.49142278594737 0.15249090741434 0.49874348231287 
H29   H     0.50674495246797 0.43601450153654 0.57355834772226 
H30   H     0.31408724003811 0.75674038090927 0.82275602980975 
H31   H     0.68589105638944 0.74325003047966 0.82270008003375 
H32   H     0.49325657579020 0.06399879020833 0.57352049177595 
