data_stdin
_audit_creation_method 'critic2'
_audit_creation_date 2023-8-11
_chemical_formula_sum 'C10 H8'
_cell_formula_units_Z 4
_cell_length_a         7.3833488600
_cell_length_b        16.5462445102
_cell_length_c         5.9257248465
_cell_angle_alpha        89.9976
_cell_angle_beta        90.0000
_cell_angle_gamma        89.9999
_cell_volume           723.926223
_space_group_crystal_system orthorhombic
_space_group_IT_number 33
_space_group_name_H-M_alt 'Pna2_1'
_space_group_name_Hall 'P 2c -2n'
loop_
_symmetry_equiv_pos_site_id
_symmetry_equiv_pos_as_xyz
 1 'x,y,z'
 2 '-x,-y,-1/2+z'
 3 '-1/2-x,-1/2+y,-1/2+z'
 4 '-1/2+x,-1/2-y,z'
loop_
_atom_site_label
_atom_site_type_symbol
_atom_site_fract_x
_atom_site_fract_y
_atom_site_fract_z
C1    C     0.70986328055007 0.36870557007550 0.00823923921633 
C2    C     0.77255344032514 0.29285672012610 0.95221334035616 
C3    C     0.85798216937072 0.27904283991670 0.74176587999002 
C4    C     0.87984180955246 0.34175912016721 0.59085949950743 
C5    C     0.81817678050911 0.42089725022435 0.64421967015940 
C6    C     0.73127858957867 0.43468739984441 0.85748505043787 
C7    C     0.67511214943120 0.51424097002434 0.91419066060361 
C8    C     0.70622755028889 0.57757754990257 0.76774251967004 
C9    C     0.79105271037379 0.56403360000408 0.55686704955243 
C10   C     0.84480569934551 0.48721500985807 0.49601154079905 
H1    H     0.64534033022037 0.37950116997476 0.17055910960938 
H2    H     0.75630242032410 0.24313039980378 0.07069022972858 
H3    H     0.90877894993122 0.21894407995616 0.70159623938855 
H4    H     0.94700188970230 0.33202071972209 0.42937302019898 
H5    H     0.60923884983853 0.52446781017758 0.07621168040067 
H6    H     0.66540666028571 0.63853220005558 0.81545428064828 
H7    H     0.81613511993657 0.61425444020287 0.44221943021632 
H8    H     0.91091758039575 0.47683321978106 0.33445057060788 
