data_stdin
_audit_creation_method 'critic2'
_audit_creation_date 2023-8-11
_chemical_formula_sum 'C10 H8'
_cell_formula_units_Z 8
_cell_length_a        16.2501633474
_cell_length_b        15.7682482600
_cell_length_c         5.8268609633
_cell_angle_alpha        90.0006
_cell_angle_beta        90.0060
_cell_angle_gamma        90.0000
_cell_volume          1493.055092
_space_group_crystal_system orthorhombic
_space_group_IT_number 41
_space_group_name_H-M_alt 'Aea2'
_space_group_name_Hall 'A 2 -2ac'
loop_
_symmetry_equiv_pos_site_id
_symmetry_equiv_pos_as_xyz
 1 'x,y,z'
 2 '-x,-1/2-y,-1/2+z'
 3 '-1/2-x,y,-1/2+z'
 4 '-1/2+x,-1/2-y,z'
 5 'x,-1/2+y,-1/2+z'
 6 '-x,-y,z'
 7 '-1/2-x,-1/2+y,z'
 8 '-1/2+x,-y,-1/2+z'
loop_
_atom_site_label
_atom_site_type_symbol
_atom_site_fract_x
_atom_site_fract_y
_atom_site_fract_z
C1    C     0.34597780018661 0.29010062008449 0.99845995001344 
C2    C     0.37780751014909 0.22929451020742 0.14379854018576 
C3    C     0.41861045004846 0.25310524006441 0.34866247048513 
C4    C     0.42521929988475 0.33753968986238 0.40774939914845 
C5    C     0.39275197969912 0.40178588009488 0.26319262944017 
C6    C     0.35351588007172 0.37763872006238 0.05209591074535 
C7    C     0.32236029004976 0.44199751994050 0.90553909021354 
C8    C     0.32892667029725 0.52635552019752 0.96553279922696 
C9    C     0.36677673010651 0.55010971992457 0.17446845933282 
C10   C     0.39768983995626 0.48911525996519 0.32031303992278 
H1    H     0.31471649012367 0.27218418970442 0.84010546993935 
H2    H     0.37217655980090 0.16237884030652 0.10052061059204 
H3    H     0.44519291973793 0.20475474006595 0.45967103028623 
H4    H     0.45525983981942 0.35579287027214 0.56746504967786 
H5    H     0.29259087027432 0.42388479970561 0.74552765998945 
H6    H     0.30375484991375 0.57483811988021 0.85270556084563 
H7    H     0.37121699990610 0.61694509002658 0.21972891051808 
H8    H     0.42584327006016 0.50700253983032 0.48287557971791 
