data_stdin
_audit_creation_method 'critic2'
_audit_creation_date 2023-8-11
_chemical_formula_sum 'C10 H8'
_cell_formula_units_Z 4
_cell_length_a         6.1877293472
_cell_length_b        11.4333398801
_cell_length_c        10.8168900037
_cell_angle_alpha        90.0002
_cell_angle_beta        67.4040
_cell_angle_gamma        89.9999
_cell_volume           706.512634
_space_group_crystal_system monoclinic
_space_group_IT_number 14
_space_group_name_H-M_alt 'P2_1/c'
_space_group_name_Hall '-P 2ybc'
loop_
_symmetry_equiv_pos_site_id
_symmetry_equiv_pos_as_xyz
 1 'x,y,z'
 2 '-x,-y,-z'
 3 '-x,-1/2+y,-1/2-z'
 4 'x,-1/2-y,-1/2+z'
loop_
_atom_site_label
_atom_site_type_symbol
_atom_site_fract_x
_atom_site_fract_y
_atom_site_fract_z
C1    C     0.18793979959103 0.95697232959008 0.25002566005813 
C2    C     0.32499039997303 0.04217823017320 0.27376699000407 
C3    C     0.57116188069688 0.04063249003209 0.20513738959767 
C4    C     0.67578299949025 0.95355385981985 0.11350953969831 
C5    C     0.54042440981091 0.86460224001341 0.08621624039144 
C6    C     0.29079714931451 0.86608858997579 0.15627428036795 
C7    C     0.15553443948423 0.77752820031343 0.12801275958457 
C8    C     0.26145206943718 0.69249524026968 0.03359183971092 
C9    C     0.50738952048330 0.69132915956926 0.96409152960945 
C10   C     0.64385556906722 0.77540569029998 0.99034935023351 
H1    H     0.99806127009408 0.95911264040840 0.30197216974654 
H2    H     0.24590302038692 0.11163448985193 0.34569835041209 
H3    H     0.67605886037006 0.10902797971803 0.22486686015418 
H4    H     0.86497882065084 0.95127404034120 0.06048478008884 
H5    H     0.96608377069402 0.77841680977791 0.18143436999797 
H6    H     0.15710579955101 0.62556460035457 0.01085757961809 
H7    H     0.58624151939801 0.62370811031405 0.88942250013407 
H8    H     0.83346399066446 0.77547749976023 0.93688874022379 
