data_stdin
_audit_creation_method 'critic2'
_audit_creation_date 2023-8-11
_chemical_formula_sum 'C10 H8'
_cell_formula_units_Z 4
_cell_length_a         5.8586895507
_cell_length_b        10.1920190801
_cell_length_c        12.2993882304
_cell_angle_alpha        90.0000
_cell_angle_beta        89.9996
_cell_angle_gamma        90.0000
_cell_volume           734.419541
_space_group_crystal_system orthorhombic
_space_group_IT_number 19
_space_group_name_H-M_alt 'P2_12_12_1'
_space_group_name_Hall 'P 2ac 2ab'
loop_
_symmetry_equiv_pos_site_id
_symmetry_equiv_pos_as_xyz
 1 'x,y,z'
 2 '-1/2-x,-y,-1/2+z'
 3 '-1/2+x,-1/2-y,-z'
 4 '-x,-1/2+y,-1/2-z'
loop_
_atom_site_label
_atom_site_type_symbol
_atom_site_fract_x
_atom_site_fract_y
_atom_site_fract_z
C1    C     0.87959802924199 0.86053451000767 0.81697280027579 
C2    C     0.02220560050023 0.75914019966411 0.78675764034308 
C3    C     0.23140412026221 0.73882960993711 0.84202218970504 
C4    C     0.29480103063467 0.82044683000405 0.92632466028118 
C5    C     0.14976025968525 0.92404833030200 0.96067608993406 
C6    C     0.93747419056572 0.94461210966244 0.90478570980087 
C7    C     0.79009568928569 0.04628152033595 0.94090204974071 
C8    C     0.84811926040313 0.12337900032926 0.02884226021808 
C9    C     0.05697665922151 0.10261623971114 0.08416096024920 
C10   C     0.20500324081406 0.00544532958100 0.05064621022684 
H1    H     0.71830145934441 0.87642121977522 0.77498002019786 
H2    H     0.97492201958286 0.69380170976162 0.72038605963654 
H3    H     0.34199782958120 0.65748280973606 0.81890587005442 
H4    H     0.45542031055598 0.80509789986102 0.96889500001228 
H5    H     0.62837120082850 0.06139777994622 0.89888141036436 
H6    H     0.73282544991751 0.20074305012976 0.05542279979256 
H7    H     0.10246302069794 0.16385727007520 0.15337023964379 
H8    H     0.36574917930705 0.98944258962397 0.09319690007502 
