data_stdin
_audit_creation_method 'critic2'
_audit_creation_date 2023-8-11
_chemical_formula_sum 'C10 H8'
_cell_formula_units_Z 8
_cell_length_a        16.2550111551
_cell_length_b         8.1307805325
_cell_length_c        11.2876559278
_cell_angle_alpha        89.9988
_cell_angle_beta        82.4102
_cell_angle_gamma        89.9988
_cell_volume          1478.773512
_space_group_crystal_system monoclinic
_space_group_IT_number 15
_space_group_name_H-M_alt 'C2/c'
_space_group_name_Hall '-C 2yc'
loop_
_symmetry_equiv_pos_site_id
_symmetry_equiv_pos_as_xyz
 1 'x,y,z'
 2 '-1/2-x,-1/2-y,-z'
 3 '-1/2-x,-1/2+y,-1/2-z'
 4 'x,-y,-1/2+z'
 5 '-1/2+x,-1/2+y,z'
 6 '-x,-y,-z'
 7 '-x,y,-1/2-z'
 8 '-1/2+x,-1/2-y,-1/2+z'
loop_
_atom_site_label
_atom_site_type_symbol
_atom_site_fract_x
_atom_site_fract_y
_atom_site_fract_z
C1    C     0.15593899018600 0.52310476035192 0.55084687957344 
C2    C     0.12390357980555 0.45454067022618 0.45504697973230 
C3    C     0.08395606976007 0.55429106940926 0.37731748040089 
C4    C     0.07705416002409 0.72155500975198 0.39633156976608 
C5    C     0.10940830995621 0.79616101052564 0.49409830019207 
C6    C     0.14925579022744 0.69451944038258 0.57359924972122 
C7    C     0.18021293969844 0.76889893007046 0.67255519032488 
C8    C     0.17194798980687 0.93554555028152 0.69281106001265 
C9    C     0.13352787995254 0.03609906978983 0.61375176018582 
C10   C     0.10326487000163 0.96799370972293 0.51629622976119 
H1    H     0.18679777997115 0.44634545945127 0.61075261988128 
H2    H     0.12914099005479 0.32283550022140 0.43866229025524 
H3    H     0.05860287994509 0.49780983940403 0.30254471010619 
H4    H     0.04597950022291 0.79926865946705 0.33728601043867 
H5    H     0.21038330991923 0.69173580038480 0.73284856967402 
H6    H     0.19485667013096 0.99061992986363 0.77002220032285 
H7    H     0.12783885991843 0.16779449017698 0.63038778966251 
H8    H     0.07335066995729 0.04482356991194 0.45539638036734 
