data_stdin
_audit_creation_method 'critic2'
_audit_creation_date 2023-8-11
_chemical_formula_sum 'C10 H8'
_cell_formula_units_Z 4
_cell_length_a         4.0488396445
_cell_length_b        32.4137777051
_cell_length_c         6.0624295052
_cell_angle_alpha        89.8759
_cell_angle_beta        96.1736
_cell_angle_gamma        89.8716
_cell_volume           791.003805
_space_group_crystal_system triclinic
_space_group_IT_number 2
_space_group_name_H-M_alt 'P-1'
_space_group_name_Hall '-P 1'
loop_
_symmetry_equiv_pos_site_id
_symmetry_equiv_pos_as_xyz
 1 'x,y,z'
 2 '-x,-y,-z'
loop_
_atom_site_label
_atom_site_type_symbol
_atom_site_fract_x
_atom_site_fract_y
_atom_site_fract_z
C1    C     0.82409596889450 0.34645757267721 0.69343724278682 
C2    C     0.18038839944426 0.84645253055476 0.30957323311907 
C3    C     0.86762964587134 0.31316520453408 0.55833198115305 
C4    C     0.13855024616964 0.81317083945235 0.44568998900757 
C5    C     0.72380176545125 0.31326618145513 0.33510258158580 
C6    C     0.28290065341902 0.81329077187236 0.66880447953438 
C7    C     0.53862958882552 0.34659338517785 0.25094555964778 
C8    C     0.46678716039594 0.84663142139987 0.75185414161684 
C9    C     0.49018206825750 0.38138305586396 0.38543639146829 
C10   C     0.51352727300429 0.88140725973946 0.61630167511826 
C11   C     0.63581662927396 0.38129327407999 0.61179518837170 
C12   C     0.36748349500155 0.88129333871438 0.39003153928899 
C13   C     0.58832605575989 0.41616203730724 0.74606420539040 
C14   C     0.41341917830620 0.91614310807306 0.25468436674160 
C15   C     0.40572043711712 0.44964523832266 0.66130564856059 
C16   C     0.59492883423300 0.94962759349014 0.33831281901343 
C17   C     0.26264251642823 0.44976912067650 0.43786054041858 
C18   C     0.73842978239535 0.94977172498888 0.56166629854339 
C19   C     0.30346043454505 0.41631985105881 0.30339774165002 
C20   C     0.69908671395608 0.91634481646231 0.69716638556074 
H1    H     0.93539330054940 0.34655550803099 0.86517169170379 
H2    H     0.06873175336923 0.84653356054851 0.13791359493889 
H3    H     0.01855875094100 0.28703419573641 0.62202779380289 
H4    H     0.98851990672509 0.78703511782551 0.38291217483309 
H5    H     0.76152312180470 0.28696075057473 0.22909559705331 
H6    H     0.24675786578042 0.78698353577181 0.77560066905593 
H7    H     0.42852754187158 0.34668336953634 0.07893312887123 
H8    H     0.57724488682680 0.84673943934215 0.92378559108627 
H9    H     0.69874396427697 0.41606316244208 0.91802410580856 
H10   H     0.30268337685510 0.91602710254674 0.08279635622721 
H11   H     0.37194056003833 0.47627226723368 0.76603912321046 
H12   H     0.62751241033863 0.97624015113795 0.23275770448400 
H13   H     0.11809337982316 0.47632201118604 0.37301909622667 
H14   H     0.88222186039116 0.97631601733707 0.62561435915186 
H15   H     0.19307240727921 0.41627321653531 0.13143386145750 
H16   H     0.80977190816793 0.91631457886906 0.86906658700678 
