data_stdin
_audit_creation_method 'critic2'
_audit_creation_date 2023-8-11
_chemical_formula_sum 'C10 H8'
_cell_formula_units_Z 4
_cell_length_a         7.8758177805
_cell_length_b        15.7127148502
_cell_length_c         5.7985818630
_cell_angle_alpha        89.9984
_cell_angle_beta        89.9998
_cell_angle_gamma        90.0007
_cell_volume           717.577283
_space_group_crystal_system orthorhombic
_space_group_IT_number 33
_space_group_name_H-M_alt 'Pna2_1'
_space_group_name_Hall 'P 2c -2n'
loop_
_symmetry_equiv_pos_site_id
_symmetry_equiv_pos_as_xyz
 1 'x,y,z'
 2 '-x,-y,-1/2+z'
 3 '-1/2-x,-1/2+y,-1/2+z'
 4 '-1/2+x,-1/2-y,z'
loop_
_atom_site_label
_atom_site_type_symbol
_atom_site_fract_x
_atom_site_fract_y
_atom_site_fract_z
C1    C     0.80014815030979 0.21607777974565 0.93401743928619 
C2    C     0.88316475962196 0.27227103010339 0.79076438934109 
C3    C     0.95073468979558 0.24421514997211 0.57785672053579 
C4    C     0.93388782009051 0.16044596004039 0.51116719077425 
C5    C     0.84871027989537 0.10083847030953 0.65452508958647 
C6    C     0.78024204047461 0.12937180979412 0.87062890933193 
C7    C     0.69219893956546 0.07028389005098 0.01188568945893 
C8    C     0.67224218023790 0.98682450982193 0.94369171001466 
C9    C     0.74135888965060 0.95856132969762 0.73185455958978 
C10   C     0.82822130036018 0.01414103003978 0.59033786938994 
H1    H     0.74735317941204 0.23736337981085 0.09790979054460 
H2    H     0.89784838025862 0.33856686971557 0.84131781071669 
H3    H     0.01863577057434 0.28902473981917 0.46796443964027 
H4    H     0.98600445024350 0.13847518972984 0.34787652080291 
H5    H     0.63987159997984 0.09174078007749 0.17579421944108 
H6    H     0.60328981975335 0.94266851003931 0.05384376915319 
H7    H     0.72593291973804 0.89229263031514 0.68116412027039 
H8    H     0.88196182047089 0.99242104980257 0.42746437076603 
