data_stdin
_audit_creation_method 'critic2'
_audit_creation_date 2023-8-11
_chemical_formula_sum 'C10 H8'
_cell_formula_units_Z 4
_cell_length_a        11.7503714950
_cell_length_b        11.7504129850
_cell_length_c         5.8248665751
_cell_angle_alpha        89.9997
_cell_angle_beta        90.0024
_cell_angle_gamma        90.0034
_cell_volume           804.249332
_space_group_crystal_system tetragonal
_space_group_IT_number 78
_space_group_name_H-M_alt 'P4_3'
_space_group_name_Hall 'P 4cw'
loop_
_symmetry_equiv_pos_site_id
_symmetry_equiv_pos_as_xyz
 1 'x,y,z'
 2 '-y,x,-1/4+z'
 3 '-x,-y,-1/2+z'
 4 'y,-x,-3/4+z'
loop_
_atom_site_label
_atom_site_type_symbol
_atom_site_fract_x
_atom_site_fract_y
_atom_site_fract_z
C1    C     0.39236270041076 0.23083846960161 0.97047489971842 
C2    C     0.48058214006459 0.30609627963563 0.00623133937665 
C3    C     0.54711282973817 0.29982934041859 0.20855903975522 
C4    C     0.52383278022906 0.21845989964704 0.37291050036757 
C5    C     0.43417155003013 0.13889189998186 0.34013656014605 
C6    C     0.36764521023851 0.14464030030809 0.13365631942774 
C7    C     0.28154534018084 0.06187734994881 0.09665583948000 
C8    C     0.26112592976030 0.97787621041049 0.25696221061648 
C9    C     0.32595252020614 0.97283329003356 0.46153521007451 
C10   C     0.41059653023724 0.05175820985577 0.50212516011752 
H1    H     0.34185733016893 0.23484529999298 0.81376254976983 
H2    H     0.50041595004738 0.37045355988297 0.87793916951483 
H3    H     0.61699106000497 0.35964825962999 0.23190593047636 
H4    H     0.57444705965228 0.21292281024497 0.52941295022531 
H5    H     0.23355247973817 0.06433045026681 0.93656712043471 
H6    H     0.19539304037564 0.91434164008146 0.22664399055729 
H7    H     0.31021148009359 0.90516734015232 0.58523017925727 
H8    H     0.46150979012598 0.04736966018140 0.65794849014997 
