data_stdin
_audit_creation_method 'critic2'
_audit_creation_date 2023-8-11
_chemical_formula_sum 'C10 H8'
_cell_formula_units_Z 4
_cell_length_a        14.9901446200
_cell_length_b        10.6087018300
_cell_length_c         4.6255375122
_cell_angle_alpha        90.0017
_cell_angle_beta        90.0006
_cell_angle_gamma        89.9998
_cell_volume           735.580611
_space_group_crystal_system orthorhombic
_space_group_IT_number 33
_space_group_name_H-M_alt 'Pna2_1'
_space_group_name_Hall 'P 2c -2n'
loop_
_symmetry_equiv_pos_site_id
_symmetry_equiv_pos_as_xyz
 1 'x,y,z'
 2 '-x,-y,-1/2+z'
 3 '-1/2-x,-1/2+y,-1/2+z'
 4 '-1/2+x,-1/2-y,z'
loop_
_atom_site_label
_atom_site_type_symbol
_atom_site_fract_x
_atom_site_fract_y
_atom_site_fract_z
C1    C     0.65087728977349 0.16876199616406 0.00140115628742 
C2    C     0.72619068075342 0.23592830128230 0.07559981990433 
C3    C     0.74497347156725 0.35258024250231 0.94018686120382 
C4    C     0.68768196435914 0.40030959530938 0.73423777365497 
C5    C     0.60879728264247 0.33455810380121 0.65666637478192 
C6    C     0.59016653090764 0.21582127982447 0.79217676824981 
C7    C     0.51065435985138 0.15088296954180 0.71713587485011 
C8    C     0.45229455095400 0.20086721535110 0.51695580907327 
C9    C     0.47131309005170 0.31729982235266 0.38119898280883 
C10   C     0.54794488595583 0.38260998957962 0.44917978035470 
H1    H     0.63548723815596 0.08013579109800 0.10957930364430 
H2    H     0.77034030624756 0.20083261959128 0.24424193917693 
H3    H     0.80465831914000 0.40489398019296 0.00091578223846 
H4    H     0.70232483619125 0.48912907071173 0.62608533337691 
H5    H     0.49615041223249 0.06135464370226 0.82301533139221 
H6    H     0.39102356160672 0.15089241392197 0.46309648586561 
H7    H     0.42589659933066 0.35449983991868 0.21884328373001 
H8    H     0.56295133608342 0.47125219130394 0.34046451484007 
