data_stdin
_audit_creation_method 'critic2'
_audit_creation_date 2023-8-11
_chemical_formula_sum 'C10 H8'
_cell_formula_units_Z 3
_cell_length_a        11.3869487060
_cell_length_b        11.3893186830
_cell_length_c         5.1167760722
_cell_angle_alpha        89.9516
_cell_angle_beta        90.0367
_cell_angle_gamma       120.0144
_cell_volume           574.604169
_space_group_crystal_system triclinic
_space_group_IT_number 1
_space_group_name_H-M_alt 'P1'
_space_group_name_Hall 'P 1'
loop_
_symmetry_equiv_pos_site_id
_symmetry_equiv_pos_as_xyz
 1 'x,y,z'
loop_
_atom_site_label
_atom_site_type_symbol
_atom_site_fract_x
_atom_site_fract_y
_atom_site_fract_z
C1    C     0.82782653988486 0.26921867018480 0.94719301912405 
C2    C     0.73061849996951 0.55862602010788 0.28056511056839 
C3    C     0.44136995976065 0.17235472956022 0.61430438985440 
C4    C     0.71179546026157 0.15046327995839 0.01332693991099 
C5    C     0.84934527976092 0.56126745974920 0.34660127902330 
C6    C     0.43862923051671 0.28829702039342 0.68052874014483 
C7    C     0.71392208014024 0.06863783988947 0.21957160922211 
C8    C     0.93126723009170 0.64513633993390 0.55269686005836 
C9    C     0.35466262009508 0.28601555956642 0.88665737942566 
C10   C     0.83124240994309 0.10734680028473 0.35946321921175 
C11   C     0.89268270010774 0.72374212044678 0.69253218067397 
C12   C     0.27605669012460 0.16863207020478 0.02635070954761 
C13   C     0.95181904003855 0.23017476023763 0.29960368930763 
C14   C     0.76988275018145 0.72156686997081 0.63277580960718 
C15   C     0.27833571945073 0.04814478950005 0.96640869933276 
C16   C     0.95034858034063 0.31216440018575 0.08740683040855 
C17   C     0.68779794961774 0.63819751986436 0.42072892065007 
C18   C     0.36180601988570 0.04977171952904 0.75432272968331 
C19   C     0.07125642983236 0.43461955982732 0.02707304977931 
C20   C     0.56536666975721 0.63671774982366 0.36050601980216 
C21   C     0.36339631992453 0.92895892950532 0.69392628905412 
C22   C     0.18755658019262 0.47574151012695 0.17215471017501 
C23   C     0.52435091950233 0.71186709974766 0.50556138071993 
C24   C     0.28824747990156 0.81260056990228 0.83884846092918 
C25   C     0.18850159982425 0.39583988963635 0.38328448951679 
C26   C     0.60434239966633 0.79261899955753 0.71655654926057 
C27   C     0.20738857017910 0.81149976043345 0.04986469060885 
C28   C     0.07329623992451 0.27529802020347 0.44460969993064 
C29   C     0.72486828046634 0.79789371041580 0.77776288057642 
C30   C     0.20201117016693 0.92661015966118 0.11124350096691 
H1    H     0.82651205989781 0.33159953010763 0.78671219061127 
H2    H     0.66816243038384 0.49499838019322 0.12019921060672 
H3    H     0.50507267026685 0.17378761040902 0.45390551075941 
H4    H     0.61820639015954 0.11914835019018 0.90609439919345 
H5    H     0.88056273968939 0.49899868002697 0.23939260089393 
H6    H     0.50089770981180 0.38193190033957 0.57343884047274 
H7    H     0.62238820035851 0.97394640043736 0.26806404940872 
H8    H     0.02593914969582 0.64823649969875 0.60111793961153 
H9    H     0.35148425028915 0.37747780015946 0.93522271916287 
H10   H     0.83206577035683 0.04443867019207 0.51905758000074 
H11   H     0.95566571936354 0.78740650958216 0.85201216942262 
H12   H     0.21231580009340 0.16769331012778 0.18585945978611 
H13   H     0.07010119969090 0.49530080017723 0.86342670036117 
H14   H     0.50461443993149 0.57495047998374 0.19696664061389 
H15   H     0.42524525992993 0.93023459014317 0.53036945956569 
H16   H     0.27960263953811 0.57004517992110 0.12348799982916 
H17   H     0.43006115985342 0.70965821994355 0.45698305940212 
H18   H     0.29053945001347 0.72062936970923 0.79014516968986 
H19   H     0.28078409019717 0.42936705002220 0.49656164985006 
H20   H     0.57090088046208 0.85135353005270 0.82982313009698 
H21   H     0.14865191996981 0.71916903977399 0.16300897941395 
H22   H     0.07425008998057 0.21385030976849 0.60720586004833 
H23   H     0.78638541010595 0.86021915045693 0.94025993942760 
H24   H     0.13959913996731 0.92553472048525 0.27375330982559 
