data_stdin
_audit_creation_method 'critic2'
_audit_creation_date 2023-8-11
_chemical_formula_sum 'C10 H8'
_cell_formula_units_Z 8
_cell_length_a         7.0451499006
_cell_length_b         7.9822795701
_cell_length_c        26.2328515802
_cell_angle_alpha        90.0005
_cell_angle_beta        90.0009
_cell_angle_gamma        90.0003
_cell_volume          1475.239983
_space_group_crystal_system orthorhombic
_space_group_IT_number 61
_space_group_name_H-M_alt 'Pbca'
_space_group_name_Hall '-P 2ac 2ab'
loop_
_symmetry_equiv_pos_site_id
_symmetry_equiv_pos_as_xyz
 1 'x,y,z'
 2 '-x,-y,-z'
 3 '-1/2-x,-y,-1/2+z'
 4 '-1/2+x,y,-1/2-z'
 5 '-1/2+x,-1/2-y,-z'
 6 '-1/2-x,-1/2+y,z'
 7 '-x,-1/2+y,-1/2-z'
 8 'x,-1/2-y,-1/2+z'
loop_
_atom_site_label
_atom_site_type_symbol
_atom_site_fract_x
_atom_site_fract_y
_atom_site_fract_z
C1    C     0.36961951941057 0.56769813026454 0.36843144000054 
C2    C     0.39820801940191 0.59968826006128 0.31734080009207 
C3    C     0.50625167019575 0.48772857993234 0.28708615996508 
C4    C     0.58380083960735 0.34539978056124 0.30857888017285 
C5    C     0.55555688993562 0.30814465059188 0.36098397991067 
C6    C     0.44650999949445 0.42206473961799 0.39154361997097 
C7    C     0.42069235007867 0.38621479007827 0.44410495996407 
C8    C     0.49956648023836 0.24465830965399 0.46570055984467 
C9    C     0.60585622965919 0.13173657062402 0.43536545018513 
C10   C     0.63259861941215 0.16265070962853 0.38413800017811 
H1    H     0.28906212053898 0.65479206950084 0.39186663016437 
H2    H     0.33875859008194 0.71292538962931 0.30056034017973 
H3    H     0.52993473996577 0.51508318054861 0.24688643999793 
H4    H     0.67034822013947 0.26021377961786 0.28594242009614 
H5    H     0.33828730036216 0.47343534959233 0.46710990014791 
H6    H     0.48033486023949 0.22021567035882 0.50623602000602 
H7    H     0.66765394030685 0.01987575058185 0.45238177004263 
H8    H     0.71294821991264 0.07543472964916 0.36071678010458 
