data_stdin
_audit_creation_method 'critic2'
_audit_creation_date 2023-8-11
_chemical_formula_sum 'C10 H8'
_cell_formula_units_Z 8
_cell_length_a         5.8030323853
_cell_length_b        15.5251978500
_cell_length_c        16.6406090400
_cell_angle_alpha        90.0000
_cell_angle_beta        89.9985
_cell_angle_gamma        89.9980
_cell_volume          1499.206148
_space_group_crystal_system orthorhombic
_space_group_IT_number 60
_space_group_name_H-M_alt 'Pbcn'
_space_group_name_Hall '-P 2n 2ab'
loop_
_symmetry_equiv_pos_site_id
_symmetry_equiv_pos_as_xyz
 1 'x,y,z'
 2 '-x,-y,-z'
 3 '-1/2-x,-1/2-y,-1/2+z'
 4 '-1/2+x,-1/2+y,-1/2-z'
 5 '-1/2+x,-1/2-y,-z'
 6 '-1/2-x,-1/2+y,z'
 7 '-x,y,-1/2-z'
 8 'x,-y,-1/2+z'
loop_
_atom_site_label
_atom_site_type_symbol
_atom_site_fract_x
_atom_site_fract_y
_atom_site_fract_z
C1    C     0.12012029926729 0.99078021988769 0.09086080518274 
C2    C     0.94930016088555 0.03944306341066 0.12634078803897 
C3    C     0.76955669167392 0.99900288776022 0.16966178300299 
C4    C     0.76425766015182 0.91065026281686 0.17705114011422 
C5    C     0.93827085867558 0.85876272252578 0.14194701289336 
C6    C     0.12002011977869 0.89962803419950 0.09760699245887 
C7    C     0.29262956764577 0.84741925610480 0.06188683362486 
C8    C     0.28876112749423 0.75903000789948 0.07054568169458 
C9    C     0.11148365161195 0.71900912376051 0.11554224447433 
C10   C     0.93903120618865 0.76778646318691 0.14992990117179 
H1    H     0.25666304664254 0.02144703497163 0.05616182869678 
H2    H     0.95027612952252 0.10925990825384 0.12053284150145 
H3    H     0.63506019216845 0.03803282717279 0.19714086845967 
H4    H     0.62628321452859 0.87899333481498 0.20990570899635 
H5    H     0.42986727661749 0.87815069416005 0.02766580000467 
H6    H     0.42176159344849 0.72024689532128 0.04188019371549 
H7    H     0.11077776384349 0.64925859245863 0.12250682006124 
H8    H     0.80151132488927 0.73736418732446 0.18433526487174 
