data_stdin
_audit_creation_method 'critic2'
_audit_creation_date 2023-8-11
_chemical_formula_sum 'C10 H8'
_cell_formula_units_Z 16
_cell_length_a        11.9330123337
_cell_length_b        11.9325010039
_cell_length_c        21.5439978500
_cell_angle_alpha        90.0005
_cell_angle_beta        89.9997
_cell_angle_gamma        89.9972
_cell_volume          3067.664536
_space_group_crystal_system tetragonal
_space_group_IT_number 88
_space_group_name_H-M_alt 'I4_1/a'
_space_group_name_Hall 'I 4bw -1bw'
loop_
_symmetry_equiv_pos_site_id
_symmetry_equiv_pos_as_xyz
 1 'x,y,z'
 2 '-1/4-y,-3/4+x,-3/4+z'
 3 '-x,-1/2-y,z'
 4 '-3/4+y,-3/4-x,-3/4+z'
 5 '-x,-y,-z'
 6 '-1/4+y,-3/4-x,-3/4-z'
 7 'x,-1/2+y,-z'
 8 '-3/4-y,-3/4+x,-3/4-z'
 9 '-1/2+x,-1/2+y,-1/2+z'
 10 '-3/4-y,-1/4+x,-1/4+z'
 11 '-1/2-x,-y,-1/2+z'
 12 '-1/4+y,-1/4-x,-1/4+z'
 13 '-1/2-x,-1/2-y,-1/2-z'
 14 '-3/4+y,-1/4-x,-1/4-z'
 15 '-1/2+x,y,-1/2-z'
 16 '-1/4-y,-1/4+x,-1/4-z'
loop_
_atom_site_label
_atom_site_type_symbol
_atom_site_fract_x
_atom_site_fract_y
_atom_site_fract_z
C1    C     0.29654548991539 0.13619262983162 0.45289481986543 
C2    C     0.30050676985428 0.22765515992849 0.41376980978476 
C3    C     0.21538706991498 0.24428293032512 0.36888251012079 
C4    C     0.12895753993801 0.16813870010605 0.36359784996111 
C5    C     0.12301774026994 0.07241368977738 0.40255398978271 
C6    C     0.20853108006637 0.05635834040889 0.44862924002646 
C7    C     0.20209672996820 0.96145635019023 0.48819178018925 
C8    C     0.11508420009875 0.88592611971844 0.48263160997396 
C9    C     0.03089353000370 0.90207546979138 0.43728013009835 
C10   C     0.03487555030489 0.99314932024149 0.39797964983410 
H1    H     0.36110454998914 0.12348891034474 0.48794401994259 
H2    H     0.36853878997685 0.28824518975996 0.41726345997837 
H3    H     0.21830355988270 0.31806374995478 0.33920090017820 
H4    H     0.06253573998758 0.18051444031089 0.32962344989730 
H5    H     0.26599109984932 0.95016199970052 0.52381776014318 
H6    H     0.11061730039325 0.81424647038829 0.51382120978495 
H7    H     0.96164734018836 0.84315370025593 0.43358493002014 
H8    H     0.96963093958604 0.00537322968762 0.36322591999769 
