data_stdin
_audit_creation_method 'critic2'
_audit_creation_date 2023-8-11
_chemical_formula_sum 'C10 H8'
_cell_formula_units_Z 4
_cell_length_a        15.4017457482
_cell_length_b         5.9435610621
_cell_length_c         8.0851204261
_cell_angle_alpha        90.0008
_cell_angle_beta        74.8301
_cell_angle_gamma        90.0015
_cell_volume           714.331443
_space_group_crystal_system monoclinic
_space_group_IT_number 13
_space_group_name_H-M_alt 'P2/c'
_space_group_name_Hall '-P 2yc'
loop_
_symmetry_equiv_pos_site_id
_symmetry_equiv_pos_as_xyz
 1 'x,y,z'
 2 '-x,-y,-z'
 3 '-x,y,-1/2-z'
 4 'x,-y,-1/2+z'
loop_
_atom_site_label
_atom_site_type_symbol
_atom_site_fract_x
_atom_site_fract_y
_atom_site_fract_z
C1    C     0.78636676999751 0.49609074009677 0.18484092057647 
C2    C     0.87276608980525 0.43600887002489 0.09774823010750 
C3    C     0.90927984969668 0.22799309054499 0.13239364990984 
C4    C     0.85860325001221 0.08205126935867 0.25220299971027 
C5    C     0.76896273975713 0.13734877989645 0.34195115000635 
C6    C     0.73234288013380 0.34914419919112 0.30800286000524 
C7    C     0.64263146020560 0.40398409056642 0.39727342059198 
C8    C     0.59120188997405 0.25637764959747 0.51465649992846 
C9    C     0.62739773964821 0.04748354048086 0.54832923045289 
C10   C     0.71442162011194 0.98948681067610 0.46364169993874 
H1    H     0.75821855004229 0.65601575050248 0.15850934061345 
H2    H     0.91242430022373 0.54780173918259 0.00010213004168 
H3    H     0.97781134965130 0.18301255068654 0.06391168032025 
H4    H     0.88610953021349 0.92116659043546 0.27880858051944 
H5    H     0.61582117969537 0.56590922030127 0.37134739000733 
H6    H     0.52246762006193 0.30017232951866 0.58246124990321 
H7    H     0.58672516000009 0.93271117017160 0.64243622003414 
H8    H     0.74245684024771 0.82930258065770 0.48949600011057 
