data_stdin
_audit_creation_method 'critic2'
_audit_creation_date 2023-8-11
_chemical_formula_sum 'C10 H8'
_cell_formula_units_Z 8
_cell_length_a        15.7121653229
_cell_length_b         5.5032529539
_cell_length_c        17.6972065376
_cell_angle_alpha        90.0003
_cell_angle_beta        82.5095
_cell_angle_gamma        89.9975
_cell_volume          1517.183899
_space_group_crystal_system monoclinic
_space_group_IT_number 15
_space_group_name_H-M_alt 'C2/c'
_space_group_name_Hall '-C 2yc'
loop_
_symmetry_equiv_pos_site_id
_symmetry_equiv_pos_as_xyz
 1 'x,y,z'
 2 '-1/2-x,-1/2-y,-z'
 3 '-1/2-x,-1/2+y,-1/2-z'
 4 'x,-y,-1/2+z'
 5 '-1/2+x,-1/2+y,z'
 6 '-x,-y,-z'
 7 '-x,y,-1/2-z'
 8 '-1/2+x,-1/2-y,-1/2+z'
loop_
_atom_site_label
_atom_site_type_symbol
_atom_site_fract_x
_atom_site_fract_y
_atom_site_fract_z
C1    C     0.25904936837446 0.17112969870304 0.39782339395751 
C2    C     0.20782725663135 0.01516629832301 0.36263356607728 
C3    C     0.24376864840755 0.80959004758529 0.32226832746313 
C4    C     0.33041152364939 0.76199763101721 0.31854982296627 
C5    C     0.38488018251460 0.91740692371156 0.35464453722382 
C6    C     0.34846365949650 0.12725233147035 0.39488364579422 
C7    C     0.40301970523458 0.28356334564659 0.43066971814154 
C8    C     0.48939107801567 0.23374856733283 0.42752821997468 
C9    C     0.52528951413260 0.02648550800815 0.38811053820006 
C10   C     0.47414873207846 0.87219902428307 0.35238919515535 
H1    H     0.23174361168340 0.33062962580524 0.42842988725303 
H2    H     0.13930035176601 0.05048717308776 0.36546653411929 
H3    H     0.20321165398578 0.68904352079876 0.29366894792923 
H4    H     0.35788218456549 0.60211207398490 0.28831141635057 
H5    H     0.37514350929095 0.44360237262763 0.46059668308986 
H6    H     0.53055028390309 0.35271931725452 0.45591467573307 
H7    H     0.59353938969831 0.98948227168871 0.38652611510805 
H8    H     0.50131397952556 0.71168262904640 0.32230735942325 
