data_stdin
_audit_creation_method 'critic2'
_audit_creation_date 2023-8-11
_chemical_formula_sum 'C10 H8'
_cell_formula_units_Z 8
_cell_length_a        12.2490199952
_cell_length_b        12.0052467900
_cell_length_c        10.4598570819
_cell_angle_alpha        90.0003
_cell_angle_beta        67.7043
_cell_angle_gamma        89.9999
_cell_volume          1423.153887
_space_group_crystal_system monoclinic
_space_group_IT_number 15
_space_group_name_H-M_alt 'C2/c'
_space_group_name_Hall '-C 2yc'
loop_
_symmetry_equiv_pos_site_id
_symmetry_equiv_pos_as_xyz
 1 'x,y,z'
 2 '-1/2-x,-1/2-y,-z'
 3 '-1/2-x,-1/2+y,-1/2-z'
 4 'x,-y,-1/2+z'
 5 '-1/2+x,-1/2+y,z'
 6 '-x,-y,-z'
 7 '-x,y,-1/2-z'
 8 '-1/2+x,-1/2-y,-1/2+z'
loop_
_atom_site_label
_atom_site_type_symbol
_atom_site_fract_x
_atom_site_fract_y
_atom_site_fract_z
C1    C     0.18076469013287 0.28468463979567 0.71269658045807 
C2    C     0.25540840973802 0.20894233020658 0.73679830047801 
C3    C     0.37870741968069 0.21659460008046 0.66277160041417 
C4    C     0.42518771051449 0.29931010028778 0.56572884961881 
C5    C     0.35050158029044 0.37810903035735 0.53799977954494 
C6    C     0.22544459963601 0.37109017027371 0.61379533029641 
C7    C     0.15107990050431 0.44981203963492 0.58533437951032 
C8    C     0.19746139017364 0.53193206977104 0.48751547039175 
C9    C     0.32071521031080 0.53851036021848 0.41237961985206 
C10   C     0.39533197024752 0.46300842968346 0.43702879019415 
H1    H     0.08575445020468 0.27813856973173 0.76918203998788 
H2    H     0.22039734011590 0.14240668990626 0.81205309024472 
H3    H     0.43661083969532 0.15615032011750 0.68272053036827 
H4    H     0.52020437992460 0.30560915965681 0.50940779983500 
H5    H     0.05591639001822 0.44341581011857 0.64038246981863 
H6    H     0.13959658962675 0.59148753020758 0.46594998016891 
H7    H     0.35589744036036 0.60322241006626 0.33457807003963 
H8    H     0.49018470992161 0.46739778036356 0.37878487009911 
