data_stdin
_audit_creation_method 'critic2'
_audit_creation_date 2023-8-11
_chemical_formula_sum 'C10 H8'
_cell_formula_units_Z 16
_cell_length_a        14.5985576058
_cell_length_b         8.3953983886
_cell_length_c        24.8042801945
_cell_angle_alpha        90.0515
_cell_angle_beta        90.0293
_cell_angle_gamma        90.0012
_cell_volume          3040.028492
_space_group_crystal_system triclinic
_space_group_IT_number 1
_space_group_name_H-M_alt 'P1'
_space_group_name_Hall 'P 1'
loop_
_symmetry_equiv_pos_site_id
_symmetry_equiv_pos_as_xyz
 1 'x,y,z'
 2 'x,-1/2+y,-1/2+z'
 3 '-1/2+x,-1/2+y,z'
 4 '-1/2+x,y,-1/2+z'
loop_
_atom_site_label
_atom_site_type_symbol
_atom_site_fract_x
_atom_site_fract_y
_atom_site_fract_z
C1    C     0.35440287168874 0.56950267481212 0.48349997214495 
C2    C     0.64565550683959 0.43034478335486 0.48353006010649 
C3    C     0.89566064618486 0.81978617987892 0.73346063098885 
C4    C     0.60439500874271 0.68060142216494 0.73355658591365 
C5    C     0.38858976828032 0.58098360271478 0.53513533749590 
C6    C     0.61133097245237 0.41941862210335 0.53511992831865 
C7    C     0.86126264321494 0.83068560371284 0.78504170276968 
C8    C     0.63854659978541 0.66909248573166 0.78519158059656 
C9    C     0.33735802860069 0.52201699331641 0.57929360687851 
C10   C     0.66246310434549 0.47879525016050 0.57932138084300 
C11   C     0.91230844334641 0.77120964833090 0.82922510533114 
C12   C     0.58726877288757 0.72796462053805 0.82938075240241 
C13   C     0.25187444104182 0.45658036422073 0.57115361501449 
C14   C     0.74798540042942 0.54408775571952 0.57127072684511 
C15   C     0.99781737218022 0.70583938081031 0.82117148849660 
C16   C     0.50177119149874 0.79332900972312 0.82126616304534 
C17   C     0.21388484011822 0.44609862261733 0.51861722910437 
C18   C     0.78611056900942 0.55401507905784 0.51878448725083 
C19   C     0.03601570626891 0.69592659807472 0.76869685390179 
C20   C     0.46381570361566 0.80382627287061 0.76872815600340 
C21   C     0.26704643188824 0.50122842643563 0.47368665296016 
C22   C     0.73305379240050 0.49845892415207 0.47380694534924 
C23   C     0.98304817491288 0.75159844668771 0.72373340780658 
C24   C     0.51702620513793 0.74880484934688 0.72377016204242 
C25   C     0.23057263272872 0.48474749034620 0.42099250667154 
C26   C     0.76966214219046 0.51436842827042 0.42115721655253 
C27   C     0.01973870957479 0.73573841090114 0.67109131069894 
C28   C     0.48059332733114 0.76532535659168 0.67107807261384 
C29   C     0.14513580897550 0.41876262409278 0.41287987677310 
C30   C     0.85513369469546 0.58021761411673 0.41313050029655 
C31   C     0.10520020737300 0.66982105076768 0.66306187146704 
C32   C     0.39514493747547 0.83124391300038 0.66299105221771 
C33   C     0.09199755774101 0.36777098971039 0.45730929099753 
C34   C     0.90816460595567 0.63165274584244 0.45760796757961 
C35   C     0.15813896349684 0.61825923061981 0.70752821258370 
C36   C     0.34195770422032 0.88212818237340 0.70744448635127 
C37   C     0.12571978195509 0.38109201847161 0.50903428281819 
C38   C     0.87431254323701 0.61888397406253 0.50929161441338 
C39   C     0.12420636344677 0.63097886848612 0.75920330217677 
C40   C     0.37563877775492 0.86876275236422 0.75916876425950 
H1    H     0.39433188029131 0.61248683243544 0.44935298187097 
H2    H     0.60580712492706 0.38704749133598 0.44934597604009 
H3    H     0.85588143941158 0.86317198184223 0.69928848681001 
H4    H     0.64436327342329 0.63770244805651 0.69938787218179 
H5    H     0.45568945287203 0.63386065376893 0.54196960055161 
H6    H     0.54419645964049 0.36667244693472 0.54188295754248 
H7    H     0.79413755658244 0.88349030542033 0.79180988890848 
H8    H     0.70565653951854 0.61627017822457 0.79200383338733 
H9    H     0.36561806760200 0.53084840500310 0.61980424693453 
H10   H     0.63409959087290 0.47040999716691 0.61979569071913 
H11   H     0.88388900174848 0.77958050871930 0.86969171917058 
H12   H     0.61550392470395 0.71911775248040 0.86989107923454 
H13   H     0.21224108157632 0.41075332423652 0.60499405282817 
H14   H     0.78754049374147 0.59023465449944 0.60514512772150 
H15   H     0.03730678817377 0.65961453486910 0.85503096379338 
H16   H     0.46210245221019 0.83908150537061 0.85513148999752 
H17   H     0.27160017757352 0.52510940804149 0.38688426234933 
H18   H     0.72871003498114 0.47367632525070 0.38701325772145 
H19   H     0.97885677424800 0.77652926535519 0.63695719225856 
H20   H     0.52165918738660 0.72505124527857 0.63694992173611 
H21   H     0.11767963649870 0.40722623760008 0.37225982990764 
H22   H     0.88269286189991 0.59131048981959 0.37254412279426 
H23   H     0.13282284232356 0.65876448507609 0.62248215244024 
H24   H     0.36771854962030 0.84280505816203 0.62237239519673 
H25   H     0.02385481680376 0.31900767454204 0.45051707417772 
H26   H     0.97633047140014 0.68032359318663 0.45088488225304 
H27   H     0.22629781187182 0.56953098204125 0.70080533513877 
H28   H     0.27380802711750 0.93084272094243 0.70066868699195 
H29   H     0.08516907633365 0.34144440368314 0.54337714915815 
H30   H     0.91478217149651 0.65887002468070 0.54367116717445 
H31   H     0.16460400510858 0.59089300661046 0.79357404992892 
H32   H     0.33504782933414 0.90832067755598 0.79353027827604 
