data_stdin
_audit_creation_method 'critic2'
_audit_creation_date 2023-8-11
_chemical_formula_sum 'C10 H8'
_cell_formula_units_Z 4
_cell_length_a         5.6491329952
_cell_length_b         7.9087036501
_cell_length_c        16.4160611181
_cell_angle_alpha        90.0002
_cell_angle_beta        74.3091
_cell_angle_gamma        90.0002
_cell_volume           706.094316
_space_group_crystal_system monoclinic
_space_group_IT_number 14
_space_group_name_H-M_alt 'P2_1/c'
_space_group_name_Hall '-P 2ybc'
loop_
_symmetry_equiv_pos_site_id
_symmetry_equiv_pos_as_xyz
 1 'x,y,z'
 2 '-x,-y,-z'
 3 '-x,-1/2+y,-1/2-z'
 4 'x,-1/2-y,-1/2+z'
loop_
_atom_site_label
_atom_site_type_symbol
_atom_site_fract_x
_atom_site_fract_y
_atom_site_fract_z
C1    C     0.40922299937536 0.11095091938670 0.33784260999585 
C2    C     0.44348249027982 0.12081176978214 0.25153255010694 
C3    C     0.27146295037516 0.20809070044397 0.21830050985616 
C4    C     0.06646484011003 0.28197311046447 0.27170201984194 
C5    C     0.02532214964707 0.27272837971771 0.36086053017835 
C6    C     0.20170155988868 0.18698554014040 0.39475721028214 
C7    C     0.16081744982405 0.17931580988970 0.48389352997612 
C8    C     0.95501291050981 0.25214855016967 0.53730934016050 
C9    C     0.78054190997842 0.33526479966675 0.50382658009779 
C10   C     0.81459928932202 0.34502911951880 0.41763049977460 
H1    H     0.54271184017406 0.04487183973782 0.36325215975596 
H2    H     0.60342923060688 0.06030366029239 0.20928045985404 
H3    H     0.30077348082457 0.21630853969116 0.15009058977032 
H4    H     0.93278754018457 0.34893792050986 0.24663632969874 
H5    H     0.29462074012046 0.11315678951390 0.50921073989242 
H6    H     0.92408757976917 0.24494391948380 0.60558070990582 
H7    H     0.61926417990259 0.39321985979759 0.54635471979387 
H8    H     0.67997609006353 0.40764668983346 0.39151109021021 
