data_stdin
_audit_creation_method 'critic2'
_audit_creation_date 2023-8-11
_chemical_formula_sum 'C10 H8'
_cell_formula_units_Z 6
_cell_length_a        13.3886105545
_cell_length_b        13.3914886458
_cell_length_c         7.4828525178
_cell_angle_alpha        89.9976
_cell_angle_beta        90.0023
_cell_angle_gamma       120.0013
_cell_volume          1161.867772
_space_group_crystal_system monoclinic
_space_group_IT_number 4
_space_group_name_H-M_alt 'P2_1'
_space_group_name_Hall 'P 2yb'
loop_
_symmetry_equiv_pos_site_id
_symmetry_equiv_pos_as_xyz
 1 'x,y,z'
 2 '-x,-y,-1/2+z'
loop_
_atom_site_label
_atom_site_type_symbol
_atom_site_fract_x
_atom_site_fract_y
_atom_site_fract_z
C1    C     0.13001480007397 0.73551690972492 0.98985730053649 
C2    C     0.39452061981349 0.12999521991372 0.48956027057468 
C3    C     0.73554083969475 0.60545463975925 0.48958102058248 
C4    C     0.16504959990048 0.66606607960745 0.07203901066274 
C5    C     0.49906209970143 0.16510746977378 0.57166488952753 
C6    C     0.66613005957744 0.50094771969383 0.57173224991849 
C7    C     0.08391088025846 0.56105537026871 0.15347152958438 
C8    C     0.52301151039237 0.08406068018681 0.65322275976088 
C9    C     0.56110411011273 0.47699500993827 0.65326291951521 
C10   C     0.96827570958179 0.52747132987424 0.15238264037347 
C11   C     0.44098366018285 0.96844211994979 0.65233136976059 
C12   C     0.52746740038620 0.55898695008287 0.65230411975781 
C13   C     0.92887512046114 0.59644503024857 0.06789959029874 
C14   C     0.33255420976558 0.92896502973184 0.56793410940175 
C15   C     0.59639751010551 0.66737842957858 0.56785030997144 
C16   C     0.01155898989663 0.70268186992580 0.98432404979073 
C17   C     0.30892176011923 0.01155328971694 0.48422849063204 
C18   C     0.70264592053015 0.69101210032783 0.48416663001578 
C19   C     0.97222932011007 0.77180043000974 0.90030701964874 
C20   C     0.20041827009696 0.97214666015259 0.40029509041997 
C21   C     0.77171329000424 0.79947080007012 0.40015490984029 
C22   C     0.85668432004250 0.73837306967642 0.89987102030269 
C23   C     0.11832012003048 0.85662053969742 0.40007481035767 
C24   C     0.73823046036149 0.88152658037904 0.39983150036355 
C25   C     0.77503123970514 0.63378645009204 0.98192663061169 
C26   C     0.14132986978029 0.77506130993850 0.48226512948694 
C27   C     0.63363486964822 0.85851698982786 0.48200430998671 
C28   C     0.81042862994965 0.56420773002733 0.06289367960488 
C29   C     0.24636180031042 0.81053322025584 0.56315051986114 
C30   C     0.56410415961278 0.75352822959075 0.56297066999302 
H1    H     0.19296181998677 0.81701646034311 0.92942517045235 
H2    H     0.37590757046704 0.19287241032944 0.42903620022301 
H3    H     0.81705301972659 0.62406927987650 0.42907614964842 
H4    H     0.25642089004777 0.69363699010622 0.07669383000802 
H5    H     0.56284549000955 0.25646906989842 0.57614266007572 
H6    H     0.69374670995420 0.43719562000537 0.57627315056665 
H7    H     0.11286465955296 0.50752450972826 0.21947367978163 
H8    H     0.60553636048497 0.11306891039813 0.71917144970394 
H9    H     0.50760278975836 0.39449693010338 0.71924427957597 
H10   H     0.90608765972832 0.44788158957274 0.21869472006737 
H11   H     0.45844497020029 0.90632736003687 0.71874088969962 
H12   H     0.44787059975442 0.54152361008512 0.71870085939196 
H13   H     0.03497849981601 0.85130992985644 0.83451228983851 
H14   H     0.18359747000976 0.03482097969123 0.33439571032836 
H15   H     0.85122676973290 0.81628883990187 0.33426609972469 
H16   H     0.82733485040750 0.79140302024874 0.83348944026203 
H17   H     0.03589611037168 0.82721236019060 0.33376210953592 
H18   H     0.79122001001960 0.96391337032039 0.33344959947615 
H19   H     0.68398202991925 0.60786363030462 0.97894404954128 
H20   H     0.07621541001944 0.68402489966578 0.47945090992464 
H21   H     0.60766962957749 0.92359685959743 0.47911147944954 
H22   H     0.74751859983383 0.48305465981337 0.12470066019743 
H23   H     0.26466487026876 0.74769581998947 0.62506164053448 
H24   H     0.48294341969191 0.73522740973958 0.62486649985948 
