data_stdin
_audit_creation_method 'critic2'
_audit_creation_date 2023-8-11
_chemical_formula_sum 'C10 H8'
_cell_formula_units_Z 4
_cell_length_a         8.3139823765
_cell_length_b        15.9809653002
_cell_length_c         5.9505266314
_cell_angle_alpha        90.0019
_cell_angle_beta        71.0707
_cell_angle_gamma        89.9993
_cell_volume           747.862286
_space_group_crystal_system monoclinic
_space_group_IT_number 14
_space_group_name_H-M_alt 'P2_1/c'
_space_group_name_Hall '-P 2ybc'
loop_
_symmetry_equiv_pos_site_id
_symmetry_equiv_pos_as_xyz
 1 'x,y,z'
 2 '-x,-y,-z'
 3 '-x,-1/2+y,-1/2-z'
 4 'x,-1/2-y,-1/2+z'
loop_
_atom_site_label
_atom_site_type_symbol
_atom_site_fract_x
_atom_site_fract_y
_atom_site_fract_z
C1    C     0.10129235056980 0.67622551021841 0.41769825946193 
C2    C     0.93140839029169 0.66887946000759 0.44049858948776 
C3    C     0.88166259925327 0.63202489975654 0.25721855079427 
C4    C     0.00230530953806 0.60304860995979 0.05338507057467 
C5    C     0.17819234986067 0.60921601978574 0.02465311965891 
C6    C     0.22879491976216 0.64703857996882 0.21028306031832 
C7    C     0.40492705963686 0.65533143968763 0.17869839088029 
C8    C     0.52535759979275 0.62576078018642 0.97541707996928 
C9    C     0.47545082971802 0.58708257027232 0.79447738081992 
C10   C     0.30561147019688 0.57957523015997 0.81774187963737 
H1    H     0.13938361067868 0.70517444999382 0.55815109949405 
H2    H     0.83524988938626 0.69263060010405 0.59908237028186 
H3    H     0.74710649022396 0.62694435021563 0.27734738977748 
H4    H     0.96455649004676 0.57495993028403 0.91133172014069 
H5    H     0.44260067056209 0.68575404989537 0.31794703993792 
H6    H     0.66005161942531 0.63171668986282 0.95319838049143 
H7    H     0.57227050976158 0.56303094024680 0.63693321040265 
H8    H     0.26627893987977 0.55100459987131 0.67764070000242 
