data_stdin
_audit_creation_method 'critic2'
_audit_creation_date 2023-8-11
_chemical_formula_sum 'C10 H8'
_cell_formula_units_Z 8
_cell_length_a        30.1438210508
_cell_length_b         5.9368263102
_cell_length_c         8.1667000983
_cell_angle_alpha        89.9991
_cell_angle_beta        90.0084
_cell_angle_gamma        90.0006
_cell_volume          1461.501444
_space_group_crystal_system orthorhombic
_space_group_IT_number 56
_space_group_name_H-M_alt 'Pccn'
_space_group_name_Hall '-P 2ab 2ac'
loop_
_symmetry_equiv_pos_site_id
_symmetry_equiv_pos_as_xyz
 1 'x,y,z'
 2 '-x,-y,-z'
 3 '-1/2-x,-1/2-y,z'
 4 '-1/2+x,-1/2+y,-z'
 5 '-x,-1/2+y,-1/2-z'
 6 'x,-1/2-y,-1/2+z'
 7 '-1/2+x,-y,-1/2-z'
 8 '-1/2-x,y,-1/2+z'
loop_
_atom_site_label
_atom_site_type_symbol
_atom_site_fract_x
_atom_site_fract_y
_atom_site_fract_z
C1    C     0.35698790033341 0.25252863851508 0.11751833589703 
C2    C     0.31445307972237 0.19742912322566 0.16527437825447 
C3    C     0.29497113052754 0.99211228857037 0.11397691881895 
C4    C     0.31851356326104 0.84376882559151 0.01720189573047 
C5    C     0.36264748098318 0.89386628414713 0.96836324144587 
C6    C     0.38220376450664 0.10308528337902 0.01888004177897 
C7    C     0.42633051516306 0.15303050680327 0.96987061611063 
C8    C     0.45002750904359 0.00329199339202 0.87463933749567 
C9    C     0.43068687652232 0.79701469160255 0.82492022711856 
C10   C     0.38797583530726 0.74321320780334 0.87126288075597 
H1    H     0.37189963493039 0.41068656196058 0.15637724978275 
H2    H     0.29612466324309 0.31121939982667 0.24505618649070 
H3    H     0.26130201682474 0.95134700719652 0.15218500181320 
H4    H     0.30390790775022 0.68485210710900 0.97771375396423 
H5    H     0.44097345856975 0.31217741784245 0.00865154116300 
H6    H     0.48383862607443 0.04319353142416 0.83778561922122 
H7    H     0.44928239061657 0.68060580243304 0.74803121636038 
H8    H     0.37313172970018 0.58452776493201 0.83327049264598 
