data_stdin
_audit_creation_method 'critic2'
_audit_creation_date 2023-8-11
_chemical_formula_sum 'C10 H8'
_cell_formula_units_Z 8
_cell_length_a        22.9743029985
_cell_length_b         6.1494344837
_cell_length_c        10.2639094903
_cell_angle_alpha        90.0014
_cell_angle_beta        94.4371
_cell_angle_gamma        90.0046
_cell_volume          1445.728474
_space_group_crystal_system monoclinic
_space_group_IT_number 15
_space_group_name_H-M_alt 'C2/c'
_space_group_name_Hall '-C 2yc'
loop_
_symmetry_equiv_pos_site_id
_symmetry_equiv_pos_as_xyz
 1 'x,y,z'
 2 '-1/2-x,-1/2-y,-z'
 3 '-1/2-x,-1/2+y,-1/2-z'
 4 'x,-y,-1/2+z'
 5 '-1/2+x,-1/2+y,z'
 6 '-x,-y,-z'
 7 '-x,y,-1/2-z'
 8 '-1/2+x,-1/2-y,-1/2+z'
loop_
_atom_site_label
_atom_site_type_symbol
_atom_site_fract_x
_atom_site_fract_y
_atom_site_fract_z
C1    C     0.43860586906278 0.60121287248383 0.88888928014326 
C2    C     0.41574816859846 0.43915345755001 0.80727464439728 
C3    C     0.35497940089702 0.42872210035716 0.77258559346039 
C4    C     0.31814618727196 0.58324770898189 0.81844918386450 
C5    C     0.34024391676147 0.75322264405320 0.90194698957480 
C6    C     0.40167329863802 0.75987185109601 0.94009389991218 
C7    C     0.42332217432359 0.92456358767976 0.02794277034560 
C8    C     0.38663451302725 0.07959372244310 0.07364427041319 
C9    C     0.32638004329954 0.07657231628701 0.03294750657740 
C10   C     0.30371157564693 0.91669509721836 0.94955180863466 
H1    H     0.48545491593483 0.61003914452670 0.91479555241961 
H2    H     0.44416412854169 0.31715610234593 0.76882774680474 
H3    H     0.33791449312436 0.29747753672841 0.70946724486608 
H4    H     0.27131943241151 0.57679253730660 0.79164027201259 
H5    H     0.46972605889553 0.92569619418058 0.05932763862975 
H6    H     0.40362334250161 0.20508861470976 0.14097360397540 
H7    H     0.29804311633323 0.20124484913701 0.06876296655503 
H8    H     0.25714981717754 0.91278002025104 0.92002267633610 
