data_stdin
_audit_creation_method 'critic2'
_audit_creation_date 2023-8-11
_chemical_formula_sum 'C10 H8'
_cell_formula_units_Z 8
_cell_length_a        15.5230195201
_cell_length_b        16.3319570200
_cell_length_c         5.9529779928
_cell_angle_alpha        89.9997
_cell_angle_beta        89.9981
_cell_angle_gamma        90.0000
_cell_volume          1509.206645
_space_group_crystal_system orthorhombic
_space_group_IT_number 20
_space_group_name_H-M_alt 'C222_1'
_space_group_name_Hall 'C 2c 2'
loop_
_symmetry_equiv_pos_site_id
_symmetry_equiv_pos_as_xyz
 1 'x,y,z'
 2 '-x,-y,-1/2+z'
 3 '-1/2+x,-1/2-y,-z'
 4 '-x,y,-1/2-z'
 5 '-1/2+x,-1/2+y,z'
 6 '-1/2-x,-1/2-y,-1/2+z'
 7 'x,-y,-z'
 8 '-1/2-x,-1/2+y,-1/2-z'
loop_
_atom_site_label
_atom_site_type_symbol
_atom_site_fract_x
_atom_site_fract_y
_atom_site_fract_z
C1    C     0.17311583999819 0.30315294017253 0.98655615021995 
C2    C     0.16271121990825 0.38408988011034 0.04702998918580 
C3    C     0.12435797988006 0.40487681007608 0.25500362971880 
C4    C     0.09751185968767 0.34422945017434 0.40025521982366 
C5    C     0.10815793024773 0.26041024023660 0.34408669947285 
C6    C     0.14648316015166 0.23932107999713 0.13235910060304 
C7    C     0.15824623989881 0.15534446988506 0.07753886976197 
C8    C     0.13281442976623 0.09487167984414 0.22509993000784 
C9    C     0.09447439981598 0.11572243981537 0.43312846034707 
C10   C     0.08270063000049 0.19657346994078 0.49115785061337 
H1    H     0.20283949975389 0.28742581003129 0.82677228997003 
H2    H     0.18503530010774 0.43193613017895 0.93381846939950 
H3    H     0.11570420004516 0.46904739016550 0.29973916993652 
H4    H     0.06760933023508 0.35971911003987 0.56035366962182 
H5    H     0.18860157971031 0.13995186996949 0.91786208034611 
H6    H     0.14256071969570 0.03063271978543 0.18259794027412 
H7    H     0.07412639011597 0.06775006010653 0.54848721030676 
H8    H     0.05433187027297 0.21260839011319 0.65238680014779 
