data_stdin
_audit_creation_method 'critic2'
_audit_creation_date 2023-8-11
_chemical_formula_sum 'C10 H8'
_cell_formula_units_Z 8
_cell_length_a         9.5321868145
_cell_length_b         9.5322286349
_cell_length_c        16.0059007125
_cell_angle_alpha        90.0070
_cell_angle_beta        90.0063
_cell_angle_gamma        89.9950
_cell_volume          1454.343877
_space_group_crystal_system tetragonal
_space_group_IT_number 86
_space_group_name_H-M_alt 'P4_2/n'
_space_group_name_Hall 'P 4n -1n'
loop_
_symmetry_equiv_pos_site_id
_symmetry_equiv_pos_as_xyz
 1 'x,y,z'
 2 '-1/2+y,-x,-1/2+z'
 3 '-1/2-x,-1/2-y,z'
 4 '-y,-1/2+x,-1/2+z'
 5 '-x,-y,-z'
 6 '-1/2-y,x,-1/2-z'
 7 '-1/2+x,-1/2+y,-z'
 8 'y,-1/2-x,-1/2-z'
loop_
_atom_site_label
_atom_site_type_symbol
_atom_site_fract_x
_atom_site_fract_y
_atom_site_fract_z
C1    C     0.47454275814698 0.68942050635973 0.27079052335713 
C2    C     0.39183560277439 0.61336208295882 0.21652065405868 
C3    C     0.28557957330694 0.52375322137838 0.24761434634866 
C4    C     0.26353358517861 0.51248346702487 0.33240902069649 
C5    C     0.34693466513273 0.58878217090473 0.39002505422782 
C6    C     0.45574000355733 0.67849374053113 0.35856980682168 
C7    C     0.53986293911904 0.75383052395372 0.41640061797273 
C8    C     0.51765720943617 0.74090034967626 0.50124642159492 
C9    C     0.40964581389380 0.65339592142410 0.53208692213815 
C10   C     0.32604007793478 0.57947253099101 0.47752173835721 
H1    H     0.55380732179292 0.76150166066203 0.24693160121060 
H2    H     0.40675958661915 0.62336230643415 0.14930070347618 
H3    H     0.21928498803977 0.46431638111498 0.20494578626644 
H4    H     0.17967273968311 0.44581951527214 0.35604136595771 
H5    H     0.62275889923968 0.82177096166797 0.39264049915598 
H6    H     0.58431215846861 0.79794338347293 0.54489413790967 
H7    H     0.39277979729776 0.64395709881839 0.59907171845095 
H8    H     0.24254320643289 0.51210078302237 0.50095316888011 
