data_stdin
_audit_creation_method 'critic2'
_audit_creation_date 2023-8-11
_chemical_formula_sum 'C10 H8'
_cell_formula_units_Z 16
_cell_length_a        24.2429615753
_cell_length_b        24.2459035835
_cell_length_c         5.6193932797
_cell_angle_alpha        89.9995
_cell_angle_beta        89.9966
_cell_angle_gamma        90.0054
_cell_volume          3303.037254
_space_group_crystal_system tetragonal
_space_group_IT_number 88
_space_group_name_H-M_alt 'I4_1/a'
_space_group_name_Hall 'I 4bw -1bw'
loop_
_symmetry_equiv_pos_site_id
_symmetry_equiv_pos_as_xyz
 1 'x,y,z'
 2 '-3/4-y,-1/4+x,-1/4+z'
 3 '-x,-1/2-y,z'
 4 '-1/4+y,-1/4-x,-1/4+z'
 5 '-1/2-x,-1/2-y,-1/2-z'
 6 '-3/4+y,-1/4-x,-1/4-z'
 7 'x,-1/2+y,-z'
 8 '-3/4-y,-3/4+x,-3/4-z'
 9 '-1/2+x,-1/2+y,-1/2+z'
 10 '-1/4-y,-3/4+x,-3/4+z'
 11 '-1/2-x,-y,-1/2+z'
 12 '-3/4+y,-3/4-x,-3/4+z'
 13 '-x,-y,-z'
 14 '-1/4+y,-3/4-x,-3/4-z'
 15 '-1/2+x,y,-1/2-z'
 16 '-1/4-y,-1/4+x,-1/4-z'
loop_
_atom_site_label
_atom_site_type_symbol
_atom_site_fract_x
_atom_site_fract_y
_atom_site_fract_z
C1    C     0.87703693996747 0.19476345994965 0.26985722073320 
C2    C     0.90378364015181 0.24391825013818 0.31341657997449 
C3    C     0.89180910994131 0.27483545998130 0.52080390033409 
C4    C     0.85279831983367 0.25628060985856 0.68067044045471 
C5    C     0.82418966002257 0.20596309005644 0.64063306025950 
C6    C     0.83683322019336 0.17446133007342 0.43117070048096 
C7    C     0.80863902989910 0.12401385006869 0.39111057056392 
C8    C     0.76959491983759 0.10538416016566 0.55043937920714 
C9    C     0.75675130996548 0.13653484992511 0.75633775951856 
C10   C     0.78351082982134 0.18571761014206 0.80029315076875 
H1    H     0.88607223020557 0.17087887991218 0.11036365982342 
H2    H     0.93414749997737 0.25929935992994 0.18706812998819 
H3    H     0.91370772992741 0.31323015019580 0.55482743947978 
H4    H     0.84345637005714 0.28001834995398 0.84024963954980 
H5    H     0.81833124986801 0.10064623018018 0.23085909949666 
H6    H     0.74819240979391 0.06659092982816 0.51785545034398 
H7    H     0.72523614981465 0.12172905000530 0.87887181016760 
H8    H     0.77363631010960 0.20973714991477 0.95843336920450 
