data_stdin
_audit_creation_method 'critic2'
_audit_creation_date 2023-8-11
_chemical_formula_sum 'C10 H8'
_cell_formula_units_Z 4
_cell_length_a         6.0319306611
_cell_length_b        17.4963748950
_cell_length_c         7.3873764398
_cell_angle_alpha        89.9629
_cell_angle_beta        78.9932
_cell_angle_gamma        90.0583
_cell_volume           765.298411
_space_group_crystal_system triclinic
_space_group_IT_number 2
_space_group_name_H-M_alt 'P-1'
_space_group_name_Hall '-P 1'
loop_
_symmetry_equiv_pos_site_id
_symmetry_equiv_pos_as_xyz
 1 'x,y,z'
 2 '-x,-y,-z'
loop_
_atom_site_label
_atom_site_type_symbol
_atom_site_fract_x
_atom_site_fract_y
_atom_site_fract_z
C1    C     0.59686604356865 0.67618062846458 0.69860744625294 
C2    C     0.40437625393355 0.17622815954120 0.80067857694980 
C3    C     0.43513115657278 0.68314571355193 0.85717850335836 
C4    C     0.56618636185605 0.18320477797035 0.64209789457600 
C5    C     0.21849777645533 0.65047093592190 0.86690051811627 
C6    C     0.78258202775460 0.15051809245137 0.63251995338410 
C7    C     0.16728698686395 0.61105279204255 0.71851365427158 
C8    C     0.83349709382080 0.11108473953904 0.78106030853900 
C9    C     0.33011226049115 0.60284310312894 0.55345714722428 
C10   C     0.67059193701658 0.10286346279051 0.94612975387441 
C11   C     0.54990671115477 0.63601923876843 0.54314565027109 
C12   C     0.45102654222501 0.13604323462816 0.95628785597961 
C13   C     0.71209376641733 0.62807877572865 0.37745002973028 
C14   C     0.28874696282801 0.12807804916739 0.12198722315333 
C15   C     0.66027640979720 0.58877902694621 0.22912623328179 
C16   C     0.34026117213786 0.08876207149536 0.27046208631317 
C17   C     0.44345090203765 0.55630835771392 0.23931653767208 
C18   C     0.55686508903566 0.05628867802751 0.26042083276538 
C19   C     0.28242095996788 0.56320876907308 0.39784774966684 
C20   C     0.71797633713618 0.06320627301328 0.10188839060096 
H1    H     0.76317899406671 0.70188923398015 0.69053235209631 
H2    H     0.23824603963793 0.20194236835108 0.80863359819881 
H3    H     0.47260411901547 0.71392183838508 0.97559667770720 
H4    H     0.52892324459242 0.21399347774327 0.52356621809831 
H5    H     0.09259618077979 0.65696357334576 0.99287215471780 
H6    H     0.90855257273155 0.15701282576959 0.50653781433312 
H7    H     0.00029031294905 0.58599190028046 0.72556195514074 
H8    H     0.00031629574351 0.08601669974740 0.77411786368336 
H9    H     0.87868171188438 0.65358249791656 0.36980836820504 
H10   H     0.12232865644633 0.15358011627833 0.12951455681327 
H11   H     0.78590846225105 0.58250769806750 0.10291937223915 
H12   H     0.21455649275211 0.08247593972199 0.39667075275134 
H13   H     0.40347243547264 0.52597104393471 0.12111972634440 
H14   H     0.59661164839685 0.02593470636777 0.37873057294886 
H15   H     0.11504537082648 0.53862576482236 0.40517807722779 
H16   H     0.88517719696909 0.03861639896481 0.09467047887099 
