data_stdin
_audit_creation_method 'critic2'
_audit_creation_date 2023-8-11
_chemical_formula_sum 'C10 H8'
_cell_formula_units_Z 4
_cell_length_a         4.1862235135
_cell_length_b        11.5995019806
_cell_length_c        16.6083695540
_cell_angle_alpha        89.5234
_cell_angle_beta        62.8794
_cell_angle_gamma        90.0596
_cell_volume           717.763169
_space_group_crystal_system triclinic
_space_group_IT_number 2
_space_group_name_H-M_alt 'P-1'
_space_group_name_Hall '-P 1'
loop_
_symmetry_equiv_pos_site_id
_symmetry_equiv_pos_as_xyz
 1 'x,y,z'
 2 '-x,-y,-z'
loop_
_atom_site_label
_atom_site_type_symbol
_atom_site_fract_x
_atom_site_fract_y
_atom_site_fract_z
C1    C     0.56303365977662 0.98896512984022 0.71819563977459 
C2    C     0.45320468114310 0.49036901991500 0.77662672967952 
C3    C     0.76914720952407 0.95520403023082 0.63001668028497 
C4    C     0.24249646935186 0.45872765038091 0.86568468020007 
C5    C     0.69033106989057 0.85100120003698 0.59886565017711 
C6    C     0.31237608919133 0.35506473970860 0.90020551013192 
C7    C     0.40706330096287 0.78252333975634 0.65643415967344 
C8    C     0.59176587887673 0.28507132001608 0.84511897995055 
C9    C     0.19086648109391 0.81465667959684 0.74764780991210 
C10   C     0.81288263101115 0.31511026006189 0.75316168969992 
C11   C     0.27015443032515 0.92045499027638 0.77911490003793 
C12   C     0.74229702913101 0.42025946974939 0.71820778989218 
C13   C     0.05430459911115 0.95264204971082 0.87037716980827 
C14   C     0.96280327121006 0.45020037971385 0.62613685967520 
C15   C     0.77508489964189 0.88296387981949 0.92817255999290 
C16   C     0.23859623083335 0.37910623962663 0.57092279008754 
C17   C     0.69686236096265 0.77864639031068 0.89706995000403 
C18   C     0.30823785882465 0.27543230982510 0.60546758031709 
C19   C     0.89958735094731 0.74557304018005 0.80861617991446 
C20   C     0.10077585000371 0.24455864003252 0.69477393003837 
H1    H     0.62536848036377 0.06866006012329 0.74232212011722 
H2    H     0.39806568057813 0.56965574985191 0.74984392005361 
H3    H     0.99726157067112 0.00779322990843 0.58474172996288 
H4    H     0.01793187987312 0.51267826964647 0.90910222008064 
H5    H     0.85354271081085 0.82476301039331 0.52910861002116 
H6    H     0.14519839003257 0.33037637978995 0.97058988007172 
H7    H     0.34250217972323 0.70281226976373 0.63254325976066 
H8    H     0.64955884976222 0.20577235966606 0.87158566973318 
H9    H     0.11549526021010 0.03296022038080 0.89430748990188 
H10   H     0.90753899882556 0.52983154988818 0.59946469009611 
H11   H     0.61262242873852 0.90854024030048 0.99808387031467 
H12   H     0.40510342023959 0.40311865961116 0.50040326005595 
H13   H     0.47294965072822 0.72506239000372 0.94297727003809 
H14   H     0.52903568920812 0.22055504030020 0.56157981030224 
H15   H     0.83564458921685 0.66593553014866 0.78465408986179 
H16   H     0.15784076870133 0.16544710968620 0.72142841021910 
