data_stdin
_audit_creation_method 'critic2'
_audit_creation_date 2023-8-11
_chemical_formula_sum 'C10 H8'
_cell_formula_units_Z 4
_cell_length_a        14.7301635400
_cell_length_b         5.9807619305
_cell_length_c         8.1174916300
_cell_angle_alpha        90.0000
_cell_angle_beta        90.0000
_cell_angle_gamma        90.0008
_cell_volume           715.131541
_space_group_crystal_system orthorhombic
_space_group_IT_number 56
_space_group_name_H-M_alt 'Pccn'
_space_group_name_Hall '-P 2ab 2ac'
loop_
_symmetry_equiv_pos_site_id
_symmetry_equiv_pos_as_xyz
 1 'x,y,z'
 2 '-1/2-x,-1/2-y,-1/2-z'
 3 '-x,-y,z'
 4 '-1/2+x,-1/2+y,-1/2-z'
 5 '-1/2-x,-1/2+y,-z'
 6 'x,-y,-1/2+z'
 7 '-1/2+x,-1/2-y,-z'
 8 '-x,y,-1/2+z'
loop_
_atom_site_label
_atom_site_type_symbol
_atom_site_fract_x
_atom_site_fract_y
_atom_site_fract_z
C1    C     0.21629541982169 0.49980029965687 0.87548761033081 
C2    C     0.12960319013510 0.44080684036095 0.92281157938703 
C3    C     0.09147059988521 0.23543818032654 0.87036951998118 
C4    C     0.14089863984422 0.09107793009924 0.77266351941337 
C5    C     0.23082609977976 0.14552030927854 0.72391115008750 
H1    H     0.24554193969822 0.65807239037706 0.91494114029937 
H2    H     0.09095429993715 0.55172172924671 0.00283417989128 
H3    H     0.02287355027221 0.19154717974768 0.90853153022279 
H4    H     0.11224072977985 0.93240258030488 0.73197914990029 
