data_stdin
_audit_creation_method 'critic2'
_audit_creation_date 2023-8-11
_chemical_formula_sum 'C10 H8'
_cell_formula_units_Z 4
_cell_length_a        15.5115537800
_cell_length_b         5.8588019785
_cell_length_c         8.1361821600
_cell_angle_alpha        89.9947
_cell_angle_beta        90.0001
_cell_angle_gamma        90.0040
_cell_volume           739.409086
_space_group_crystal_system orthorhombic
_space_group_IT_number 19
_space_group_name_H-M_alt 'P2_12_12_1'
_space_group_name_Hall 'P 2ac 2ab'
loop_
_symmetry_equiv_pos_site_id
_symmetry_equiv_pos_as_xyz
 1 'x,y,z'
 2 '-1/2+x,-1/2-y,-z'
 3 '-x,-1/2+y,-1/2-z'
 4 '-1/2-x,-y,-1/2+z'
loop_
_atom_site_label
_atom_site_type_symbol
_atom_site_fract_x
_atom_site_fract_y
_atom_site_fract_z
C1    C     0.82396917645851 0.97842557840295 0.76931707013715 
C2    C     0.75471342945334 0.12044323812216 0.79866778244669 
C3    C     0.74886316949637 0.33415634454282 0.71812082451388 
C4    C     0.81171102332369 0.40188106413358 0.60878609092653 
C5    C     0.88339232541597 0.25909165392496 0.57463057311378 
C6    C     0.88971906138662 0.04266342196878 0.65677859631320 
C7    C     0.96179970044685 0.90044798215385 0.62359925645691 
C8    C     0.02520948867765 0.96879897307469 0.51509111473469 
C9    C     0.01907446549276 0.18275687623116 0.43497772677042 
C10   C     0.94966329632580 0.32424209246803 0.46389845157148 
H1    H     0.82912168176499 0.81508398644758 0.83252210224678 
H2    H     0.70476518821470 0.06783699879294 0.88478257605692 
H3    H     0.69498496099117 0.44788524773359 0.74375322820020 
H4    H     0.80722334959760 0.56743789181594 0.54879603244518 
H5    H     0.96666374714991 0.73688167364605 0.68639170345556 
H6    H     0.08052147429303 0.85837044422288 0.49264503326659 
H7    H     0.06993919312490 0.23834846088180 0.35194464894339 
H8    H     0.94594018628027 0.48998148587445 0.40363823245788 
