data_stdin
_audit_creation_method 'critic2'
_audit_creation_date 2023-8-11
_chemical_formula_sum 'C10 H8'
_cell_formula_units_Z 8
_cell_length_a        29.9216162202
_cell_length_b         5.9544906439
_cell_length_c         8.1467915945
_cell_angle_alpha        90.0011
_cell_angle_beta        89.6459
_cell_angle_gamma        90.0020
_cell_volume          1451.469711
_space_group_crystal_system monoclinic
_space_group_IT_number 15
_space_group_name_H-M_alt 'C2/c'
_space_group_name_Hall '-C 2yc'
loop_
_symmetry_equiv_pos_site_id
_symmetry_equiv_pos_as_xyz
 1 'x,y,z'
 2 '-x,-y,-z'
 3 '-x,y,-1/2-z'
 4 'x,-y,-1/2+z'
 5 '-1/2+x,-1/2+y,z'
 6 '-1/2-x,-1/2-y,-z'
 7 '-1/2-x,-1/2+y,-1/2-z'
 8 '-1/2+x,-1/2-y,-1/2+z'
loop_
_atom_site_label
_atom_site_type_symbol
_atom_site_fract_x
_atom_site_fract_y
_atom_site_fract_z
C1    C     0.13526728998161 0.99159443940364 0.65148299944842 
C2    C     0.17924830006422 0.02955044930474 0.69291193046218 
C3    C     0.20108043993709 0.22919050012597 0.64256824046149 
C4    C     0.17852954984192 0.38886761041010 0.55228143992722 
C5    C     0.13310421990615 0.35565773043284 0.50879618011827 
C6    C     0.11114179986436 0.15245465963272 0.55903347964751 
C7    C     0.06567131001747 0.11980721922745 0.51642060034739 
C8    C     0.04283165013223 0.28064428015338 0.42847115045574 
C9    C     0.06458179015491 0.48044568993797 0.37798201025452 
C10   C     0.10877371002100 0.51691293974201 0.41726895015002 
H1    H     0.11846337985595 0.83814048068737 0.69016589023378 
H2    H     0.19693234011244 0.90630507935713 0.76686167014865 
H3    H     0.23593210010036 0.25583187077658 0.67500717945066 
H4    H     0.19509349011330 0.54330497041790 0.51361948996472 
H5    H     0.04930035999035 0.96511684953573 0.55509048022301 
H6    H     0.00782629985042 0.25556922025443 0.39782388010448 
H7    H     0.04648305010154 0.60504065957715 0.30651913034985 
H8    H     0.12552690001721 0.67044710014446 0.37862131943743 
