data_stdin
_audit_creation_method 'critic2'
_audit_creation_date 2023-8-11
_chemical_formula_sum 'C10 H8'
_cell_formula_units_Z 8
_cell_length_a        19.5302480935
_cell_length_b         5.8416867063
_cell_length_c        13.2696987710
_cell_angle_alpha        90.0012
_cell_angle_beta        87.9196
_cell_angle_gamma        89.9980
_cell_volume          1512.936587
_space_group_crystal_system monoclinic
_space_group_IT_number 15
_space_group_name_H-M_alt 'C2/c'
_space_group_name_Hall '-C 2yc'
loop_
_symmetry_equiv_pos_site_id
_symmetry_equiv_pos_as_xyz
 1 'x,y,z'
 2 '-x,-y,-z'
 3 '-x,y,-1/2-z'
 4 'x,-y,-1/2+z'
 5 '-1/2+x,-1/2+y,z'
 6 '-1/2-x,-1/2-y,-z'
 7 '-1/2-x,-1/2+y,-1/2-z'
 8 '-1/2+x,-1/2-y,-1/2+z'
loop_
_atom_site_label
_atom_site_type_symbol
_atom_site_fract_x
_atom_site_fract_y
_atom_site_fract_z
C1    C     0.43406656014147 0.58871572046743 0.34449352023041 
C2    C     0.44532042999223 0.72584130972148 0.42686230998750 
C3    C     0.41114424008214 0.93823588975691 0.43846346970820 
C4    C     0.36645233014065 0.01071480916560 0.36689207020021 
C5    C     0.35425405002014 0.87508278003178 0.28060623030804 
C6    C     0.38868113022059 0.65881961945784 0.26923210975892 
C7    C     0.37666800019940 0.52383493074568 0.18262189013331 
C8    C     0.33329515983738 0.59937419984651 0.10992160986637 
C9    C     0.29980711983240 0.81336154060292 0.12103285997855 
C10   C     0.30958857978181 0.94763098026559 0.20472651013827 
H1    H     0.45989263010759 0.42413665019473 0.33601174984894 
H2    H     0.48084723018411 0.67168400977950 0.48351354995556 
H3    H     0.41985102014821 0.04378225988228 0.50440002979339 
H4    H     0.34022181012693 0.17454906973590 0.37489516000917 
H5    H     0.40219928012327 0.35863190946344 0.17438399009164 
H6    H     0.32524202976205 0.49368618000926 0.04373745973036 
H7    H     0.26640741977502 0.87389301082794 0.06278592036638 
H8    H     0.28351649005197 0.11162932015412 0.21348401030336 
