data_stdin
_audit_creation_method 'critic2'
_audit_creation_date 2023-8-11
_chemical_formula_sum 'C10 H8'
_cell_formula_units_Z 8
_cell_length_a        25.1682906107
_cell_length_b         5.9102049420
_cell_length_c        10.3217771913
_cell_angle_alpha        90.0015
_cell_angle_beta        89.9992
_cell_angle_gamma        90.0002
_cell_volume          1535.361833
_space_group_crystal_system orthorhombic
_space_group_IT_number 61
_space_group_name_H-M_alt 'Pbca'
_space_group_name_Hall '-P 2ac 2ab'
loop_
_symmetry_equiv_pos_site_id
_symmetry_equiv_pos_as_xyz
 1 'x,y,z'
 2 '-x,-y,-z'
 3 '-1/2+x,-1/2-y,-z'
 4 '-1/2-x,-1/2+y,z'
 5 '-x,-1/2+y,-1/2-z'
 6 'x,-1/2-y,-1/2+z'
 7 '-1/2-x,-y,-1/2+z'
 8 '-1/2+x,y,-1/2-z'
loop_
_atom_site_label
_atom_site_type_symbol
_atom_site_fract_x
_atom_site_fract_y
_atom_site_fract_z
C1    C     0.86371587242021 0.72848516353107 0.16790130380521 
C2    C     0.90939242201962 0.69700981709724 0.09635399341716 
C3    C     0.95165742558242 0.85396836298615 0.10576500423305 
C4    C     0.94763203194987 0.04079951161137 0.18552119645947 
C5    C     0.90113234655375 0.07757920082934 0.26071168909938 
C6    C     0.85838593315612 0.91716111439260 0.25195633537814 
C7    C     0.81229673487664 0.95083854784349 0.32879075993734 
C8    C     0.80866804766452 0.13290660450331 0.41205398631652 
C9    C     0.85045268932135 0.29266853356142 0.41976163799271 
C10   C     0.89547802919476 0.26589703668115 0.34501154168258 
H1    H     0.83135975852347 0.60655336186924 0.16176732855030 
H2    H     0.91300923251610 0.55065022849122 0.03300232908616 
H3    H     0.98764099430645 0.82551184944428 0.04946269476026 
H4    H     0.98018166391700 0.16195196216721 0.19296120334655 
H5    H     0.77996741023693 0.82894502498315 0.32144229289295 
H6    H     0.77358992738028 0.15383479849193 0.47284963004499 
H7    H     0.84721110306835 0.43695590651974 0.48482222919879 
H8    H     0.92722653982907 0.39064032174513 0.34986013780694 
