data_stdin
_audit_creation_method 'critic2'
_audit_creation_date 2023-8-11
_chemical_formula_sum 'C10 H8'
_cell_formula_units_Z 4
_cell_length_a        26.4391825601
_cell_length_b         5.8192437225
_cell_length_c         4.9370559404
_cell_angle_alpha        90.0000
_cell_angle_beta        89.9992
_cell_angle_gamma        90.0015
_cell_volume           759.595911
_space_group_crystal_system orthorhombic
_space_group_IT_number 29
_space_group_name_H-M_alt 'Pca2_1'
_space_group_name_Hall 'P 2c -2ac'
loop_
_symmetry_equiv_pos_site_id
_symmetry_equiv_pos_as_xyz
 1 'x,y,z'
 2 '-x,-y,-1/2+z'
 3 '-1/2-x,y,-1/2+z'
 4 '-1/2+x,-y,z'
loop_
_atom_site_label
_atom_site_type_symbol
_atom_site_fract_x
_atom_site_fract_y
_atom_site_fract_z
C1    C     0.37333401998156 0.89923897982876 0.99511279905413 
C2    C     0.32939217995145 0.84125921967268 0.86104530027501 
C3    C     0.30479836998813 0.63056620050611 0.91679985935748 
C4    C     0.32449111995635 0.48155439937398 0.10668520084866 
C5    C     0.36952521002775 0.53649351081368 0.24911395908673 
C6    C     0.39456605015152 0.74995259068206 0.19205388990073 
C7    C     0.43953006017379 0.80484008931194 0.33557973960861 
C8    C     0.45879982004358 0.65658420003313 0.52749452946329 
C9    C     0.43421922008074 0.44575845931785 0.58240727913744 
C10   C     0.39058944993200 0.38718662954692 0.44627296006732 
H1    H     0.39229542002538 0.06137694016446 0.95221893055574 
H2    H     0.31348298013158 0.95655920998605 0.70947220911375 
H3    H     0.27024581013130 0.58747398996265 0.80821663023155 
H4    H     0.30604004009307 0.31768926044009 0.14832218043477 
H5    H     0.45824190014140 0.96791733070662 0.29367261001346 
H6    H     0.49305597999369 0.69934842014247 0.63928031060583 
H7    H     0.45012253011483 0.33080283003891 0.73381543994208 
H8    H     0.37166539009731 0.22473120014100 0.48794737094544 
