data_stdin
_audit_creation_method 'critic2'
_audit_creation_date 2023-8-11
_chemical_formula_sum 'C10 H8'
_cell_formula_units_Z 8
_cell_length_a        29.1150717006
_cell_length_b         5.9674664917
_cell_length_c         8.1061511700
_cell_angle_alpha        89.9997
_cell_angle_beta        89.9996
_cell_angle_gamma        90.0011
_cell_volume          1408.388763
_space_group_crystal_system orthorhombic
_space_group_IT_number 56
_space_group_name_H-M_alt 'Pccn'
_space_group_name_Hall '-P 2ab 2ac'
loop_
_symmetry_equiv_pos_site_id
_symmetry_equiv_pos_as_xyz
 1 'x,y,z'
 2 '-x,-y,-z'
 3 '-1/2-x,-1/2-y,z'
 4 '-1/2+x,-1/2+y,-z'
 5 '-x,-1/2+y,-1/2-z'
 6 'x,-1/2-y,-1/2+z'
 7 '-1/2+x,-y,-1/2-z'
 8 '-1/2-x,y,-1/2+z'
loop_
_atom_site_label
_atom_site_type_symbol
_atom_site_fract_x
_atom_site_fract_y
_atom_site_fract_z
C1    C     0.39498494591419 0.24654257909305 0.32142898136657 
C2    C     0.43913975817864 0.30544118554368 0.36581319289589 
C3    C     0.45779501692115 0.51339085189684 0.31466984835789 
C4    C     0.43203222274663 0.65875693532135 0.22009294588558 
C5    C     0.38649425854970 0.60344061030599 0.17294147908853 
C6    C     0.36753708885165 0.39303454331656 0.22499550619371 
C7    C     0.32188180193491 0.33820449372429 0.17819172975642 
C8    C     0.29645324462173 0.48311367639067 0.08192312073243 
C9    C     0.31541838693645 0.68952899877295 0.02899637443207 
C10   C     0.35935589232627 0.74925549868075 0.07489904558832 
H1    H     0.38061285122389 0.08676906879497 0.36048439439380 
H2    H     0.45951774136194 0.19148351437816 0.44119181796361 
H3    H     0.49260207189675 0.55981767882470 0.35010799484179 
H4    H     0.44610362681628 0.81906066068196 0.18066458800315 
H5    H     0.30757296933845 0.17884056742517 0.21908229483198 
H6    H     0.26162753800172 0.43892991045241 0.04524533988412 
H7    H     0.29553037104172 0.80058943463211 0.94984519115898 
H8    H     0.37393129625494 0.90830619121522 0.03516919724940 
