data_stdin
_audit_creation_method 'critic2'
_audit_creation_date 2023-8-11
_chemical_formula_sum 'C10 H8'
_cell_formula_units_Z 4
_cell_length_a         7.8213071276
_cell_length_b        12.3541905000
_cell_length_c         7.7641307135
_cell_angle_alpha        90.0000
_cell_angle_beta        85.0714
_cell_angle_gamma        90.0000
_cell_volume           747.442370
_space_group_crystal_system monoclinic
_space_group_IT_number 14
_space_group_name_H-M_alt 'P2_1/c'
_space_group_name_Hall '-P 2ybc'
loop_
_symmetry_equiv_pos_site_id
_symmetry_equiv_pos_as_xyz
 1 'x,y,z'
 2 '-x,-y,-z'
 3 '-x,-1/2+y,-1/2-z'
 4 'x,-1/2-y,-1/2+z'
loop_
_atom_site_label
_atom_site_type_symbol
_atom_site_fract_x
_atom_site_fract_y
_atom_site_fract_z
C1    C     0.48826533016960 0.92705746029545 0.18442943960422 
C2    C     0.47622445030814 0.84080732976256 0.07356908975985 
C3    C     0.62603296971316 0.78807424003089 0.00074988039513 
C4    C     0.78572635014496 0.82180589961236 0.04157005033714 
C5    C     0.80304660971793 0.91071083960730 0.15470074957418 
C6    C     0.65088344009483 0.96495355990428 0.22660376062323 
C7    C     0.66787288015175 0.05627155020540 0.33476137937663 
C8    C     0.82780808957091 0.09268464024332 0.37014816032038 
C9    C     0.97792213994737 0.03920501986926 0.29981986944740 
C10   C     0.96551524955816 0.94991206002937 0.19513598002430 
H1    H     0.37358784997438 0.96913112998889 0.23861264008785 
H2    H     0.35126878058200 0.81409009993131 0.03840436987106 
H3    H     0.61503774978192 0.72152244968958 0.91056155997806 
H4    H     0.90101640984946 0.78170176009435 0.98414100979122 
H5    H     0.55216669032047 0.09763517029792 0.38782044963786 
H6    H     0.83947363969118 0.16248321980826 0.45404523050588 
H7    H     0.10302093050880 0.06937386987755 0.32882385960218 
H8    H     0.08075027953823 0.90928095999372 0.13896696935100 
