data_stdin
_audit_creation_method 'critic2'
_audit_creation_date 2023-8-11
_chemical_formula_sum 'C10 H8'
_cell_formula_units_Z 8
_cell_length_a        11.1932863555
_cell_length_b        24.5073032998
_cell_length_c         5.5231625418
_cell_angle_alpha        89.9989
_cell_angle_beta        90.0005
_cell_angle_gamma        90.0006
_cell_volume          1515.098835
_space_group_crystal_system orthorhombic
_space_group_IT_number 61
_space_group_name_H-M_alt 'Pbca'
_space_group_name_Hall '-P 2ac 2ab'
loop_
_symmetry_equiv_pos_site_id
_symmetry_equiv_pos_as_xyz
 1 'x,y,z'
 2 '-x,-y,-z'
 3 '-x,-1/2+y,-1/2-z'
 4 'x,-1/2-y,-1/2+z'
 5 '-1/2-x,-y,-1/2+z'
 6 '-1/2+x,y,-1/2-z'
 7 '-1/2+x,-1/2-y,-z'
 8 '-1/2-x,-1/2+y,z'
loop_
_atom_site_label
_atom_site_type_symbol
_atom_site_fract_x
_atom_site_fract_y
_atom_site_fract_z
C1    C     0.57398523730850 0.39354141813785 0.22773910884553 
C2    C     0.64531470795133 0.34763139950953 0.23144926232889 
C3    C     0.62908853127023 0.30754325751979 0.41316187804642 
C4    C     0.54183197105175 0.31388091711480 0.58737926589702 
C5    C     0.46770603953434 0.36086104607157 0.58936199308595 
C6    C     0.48415166905163 0.40163525408034 0.40560584170060 
C7    C     0.41077596134797 0.44885931812300 0.40970767433336 
C8    C     0.32522525719418 0.45565538826598 0.58698763572289 
C9    C     0.30846772374702 0.41530052185707 0.76717635438732 
C10   C     0.37844916606001 0.36897610967010 0.76830864881411 
H1    H     0.58608347500653 0.42421952635721 0.08722366713507 
H2    H     0.71440386528904 0.34252293320683 0.09450852962265 
H3    H     0.68625408976416 0.27152864644134 0.41551234731805 
H4    H     0.52913570544449 0.28304350494881 0.72710621685750 
H5    H     0.42444256275165 0.47998239626170 0.27158799995213 
H6    H     0.27044619751357 0.49236797924812 0.58939540667863 
H7    H     0.24002290418142 0.42045108771250 0.90541699010600 
H8    H     0.36654591740728 0.33826456533062 0.90876560033638 
