data_stdin
_audit_creation_method 'critic2'
_audit_creation_date 2023-8-11
_chemical_formula_sum 'C10 H8'
_cell_formula_units_Z 4
_cell_length_a         5.8004459065
_cell_length_b         9.7589996900
_cell_length_c        12.7950383804
_cell_angle_alpha        89.9999
_cell_angle_beta        76.1524
_cell_angle_gamma        89.9998
_cell_volume           703.232279
_space_group_crystal_system monoclinic
_space_group_IT_number 14
_space_group_name_H-M_alt 'P2_1/c'
_space_group_name_Hall '-P 2ybc'
loop_
_symmetry_equiv_pos_site_id
_symmetry_equiv_pos_as_xyz
 1 'x,y,z'
 2 '-x,-y,-z'
 3 '-x,-1/2+y,-1/2-z'
 4 'x,-1/2-y,-1/2+z'
loop_
_atom_site_label
_atom_site_type_symbol
_atom_site_fract_x
_atom_site_fract_y
_atom_site_fract_z
C1    C     0.91722071992185 0.34940187017048 0.26080552037798 
C2    C     0.92608929935379 0.43696531990173 0.17518044969725 
C3    C     0.72738749986677 0.51900543036571 0.17057347998025 
C4    C     0.52214709939302 0.51151505042099 0.25147594022970 
C5    C     0.50784565961330 0.42321265015168 0.34089145002911 
C6    C     0.70994682057812 0.34109910974133 0.34622672009004 
C7    C     0.69746215059071 0.25689674949409 0.43800416981322 
C8    C     0.49541235955505 0.25401170021920 0.52077782024828 
C9    C     0.29547779013655 0.33421477992288 0.51482860021002 
C10   C     0.30159578948212 0.41644470972160 0.42671797016019 
H1    H     0.07064939976499 0.28694546988796 0.26492191006653 
H2    H     0.08759229986277 0.44375583031209 0.11107119989835 
H3    H     0.73530550087938 0.58840853971266 0.10312781975723 
H4    H     0.36936597061507 0.57480245037866 0.24811538972714 
H5    H     0.85215208084021 0.19630112009740 0.44292681991102 
H6    H     0.49084307936714 0.19079725958408 0.59140832980423 
H7    H     0.13747754924601 0.33172801017426 0.58099635996450 
H8    H     0.14898920005516 0.47894069019440 0.42202634013702 
