data_stdin
_audit_creation_method 'critic2'
_audit_creation_date 2023-8-11
_chemical_formula_sum 'C10 H8'
_cell_formula_units_Z 6
_cell_length_a        15.4935925902
_cell_length_b        15.5021019062
_cell_length_c         5.8234393321
_cell_angle_alpha        90.0018
_cell_angle_beta        89.9983
_cell_angle_gamma       120.0532
_cell_volume          1210.653010
_space_group_crystal_system monoclinic
_space_group_IT_number 4
_space_group_name_H-M_alt 'P2_1'
_space_group_name_Hall 'P 2yb'
loop_
_symmetry_equiv_pos_site_id
_symmetry_equiv_pos_as_xyz
 1 'x,y,z'
 2 '-x,-y,-1/2+z'
loop_
_atom_site_label
_atom_site_type_symbol
_atom_site_fract_x
_atom_site_fract_y
_atom_site_fract_z
C1    C     0.29961236933072 0.93405701090986 0.00155585018794 
C2    C     0.36577066101920 0.29981586330332 0.16816058799725 
C3    C     0.93401117713585 0.63411416416529 0.83535900521699 
C4    C     0.21851938120030 0.89745287273696 0.85632031991390 
C5    C     0.32139165752255 0.21878338780529 0.02284147080372 
C6    C     0.89734453381657 0.67843860868837 0.69006371596787 
C7    C     0.22515098488732 0.94553432882312 0.64482826545633 
C8    C     0.27985180219321 0.22529872334272 0.81135991861584 
C9    C     0.94542773074521 0.71994330389280 0.47853653847355 
C10   C     0.31290009775899 0.02922155477184 0.58158254173119 
C11   C     0.28373698388924 0.31288062796416 0.74818380154562 
C12   C     0.02916908741035 0.71608088912948 0.41529900615652 
C13   C     0.39776858814828 0.06901065466183 0.72705767399517 
C14   C     0.32872547030613 0.39769199745827 0.89371363309056 
C15   C     0.06900720198823 0.67114974623026 0.56080820225876 
C16   C     0.39089042603103 0.02066574355034 0.94209511339468 
C17   C     0.37025733372021 0.39091976809465 0.10876953125083 
C18   C     0.02067390147022 0.62964978406109 0.77590052715491 
C19   C     0.47563236325700 0.06053543006044 0.08799340492018 
C20   C     0.41503644180199 0.47559945307656 0.25473472615277 
C21   C     0.06059079237226 0.58492387524967 0.92182686162963 
C22   C     0.56369538068764 0.14411869020033 0.02451784857623 
C23   C     0.41939131011840 0.56351449981473 0.19128137710427 
C24   C     0.14419501241654 0.58059275583019 0.85830482770809 
C25   C     0.57038553085058 0.19153005808775 0.81210520249445 
C26   C     0.37862359689785 0.57010715260698 0.97883426273542 
C27   C     0.19158621932361 0.62133140739396 0.64582152091687 
C28   C     0.48920803825560 0.15484111193446 0.66691811127953 
C29   C     0.33419795892174 0.48897740261697 0.83360512266920 
C30   C     0.15486348288245 0.66570204953098 0.50063011887657 
H1    H     0.29518768987614 0.89746238075304 0.16447113285698 
H2    H     0.39800535624083 0.29548085700955 0.33107586939022 
H3    H     0.89741717562439 0.60190819119708 0.99830492618468 
H4    H     0.14897386488141 0.83065586748190 0.90144656184366 
H5    H     0.31880092008185 0.14937839273124 0.06789550991384 
H6    H     0.83048990397299 0.68100489168578 0.73516046348837 
H7    H     0.16041458366178 0.91535964051339 0.53218789306847 
H8    H     0.24536380729411 0.16060856410022 0.69866633490550 
H9    H     0.91520753870187 0.75438381710051 0.36586458291483 
H10   H     0.31839427461622 0.06582096456071 0.41808476063945 
H11   H     0.25257158103991 0.31828609291526 0.58467982773637 
H12   H     0.06577030559646 0.74722328169825 0.25177276313448 
H13   H     0.47031379814321 0.02360792711993 0.25067507016093 
H14   H     0.44668853911004 0.47035703353997 0.41743530505641 
H15   H     0.02367271041823 0.55329452822498 0.08455557447657 
H16   H     0.62859264023106 0.17282305635748 0.13666250768401 
H17   H     0.45553544924489 0.62837692555075 0.30345747333328 
H18   H     0.17291984945325 0.54448614344803 0.97045057336292 
H19   H     0.64030270701882 0.25705115483214 0.76228005308779 
H20   H     0.38293853947003 0.63991746896653 0.92903064841213 
H21   H     0.25711981037780 0.61704340773855 0.59596189953470 
H22   H     0.49420415216009 0.19057408776510 0.50241920651957 
H23   H     0.30341965620008 0.49390113079386 0.66908605110983 
H24   H     0.19058002125695 0.69645805622846 0.33608003020967 
