data_stdin
_audit_creation_method 'critic2'
_audit_creation_date 2023-8-11
_chemical_formula_sum 'C10 H8'
_cell_formula_units_Z 8
_cell_length_a        31.6866133697
_cell_length_b         5.9293307034
_cell_length_c         8.2021547393
_cell_angle_alpha        90.0008
_cell_angle_beta       107.9311
_cell_angle_gamma        90.0082
_cell_volume          1466.172718
_space_group_crystal_system monoclinic
_space_group_IT_number 15
_space_group_name_H-M_alt 'C2/c'
_space_group_name_Hall '-C 2yc'
loop_
_symmetry_equiv_pos_site_id
_symmetry_equiv_pos_as_xyz
 1 'x,y,z'
 2 '-1/2-x,-1/2-y,-z'
 3 '-1/2-x,-1/2+y,-1/2-z'
 4 'x,-y,-1/2+z'
 5 '-1/2+x,-1/2+y,z'
 6 '-x,-y,-z'
 7 '-x,y,-1/2-z'
 8 '-1/2+x,-1/2-y,-1/2+z'
loop_
_atom_site_label
_atom_site_type_symbol
_atom_site_fract_x
_atom_site_fract_y
_atom_site_fract_z
C1    C     0.10618202999142 0.49965991937479 0.21193283015404 
C2    C     0.06378716994858 0.44179045949539 0.11380114951314 
C3    C     0.04484460013631 0.23470686002663 0.14182180011182 
C4    C     0.06871610992129 0.08764388080545 0.26658027010302 
C5    C     0.11263666000287 0.14092257013152 0.36814698960434 
C6    C     0.13172031007876 0.35160255958605 0.34061754052396 
C7    C     0.17571082010578 0.40417659055052 0.44198096014401 
C8    C     0.19966602984974 0.25590021931227 0.56575267008138 
C9    C     0.80033574006772 0.25549006970483 0.93417730009135 
C10   C     0.18073323992825 0.04857100928966 0.59314054996351 
C11   C     0.81928145985780 0.04820327052327 0.90682204018699 
C12   C     0.13820042997901 0.99202108995898 0.49595657945027 
C13   C     0.86181338018054 0.99175594021307 0.00404607046499 
H1    H     0.12069095003012 0.65902576033139 0.19052130945453 
H2    H     0.04513756007455 0.55457114064943 0.01241918031172 
H3    H     0.01127573999281 0.19130239971491 0.06417593996891 
H4    H     0.05449269990239 0.92738063991355 0.28843649052755 
H5    H     0.94551627983203 0.92731313952900 0.21164536955213 
H6    H     0.19006632010602 0.56416942032709 0.42041745955662 
H7    H     0.23337085007474 0.29783901052507 0.64266787959074 
H8    H     0.76663097988155 0.29734658982016 0.85723473999378 
H9    H     0.19951816993225 0.93359458000660 0.69264872994887 
H10   H     0.80050819008946 0.93317631977675 0.80730701937993 
H11   H     0.12365638001727 0.83251919060655 0.51669341994934 
H12   H     0.87636656981270 0.83228497948051 0.98333382942012 
