data_stdin
_audit_creation_method 'critic2'
_audit_creation_date 2023-8-11
_chemical_formula_sum 'C38 H22'
_cell_formula_units_Z 2
_cell_length_a         9.7251014246
_cell_length_b        13.6612916118
_cell_length_c         9.9551308075
_cell_angle_alpha        94.8670
_cell_angle_beta        64.9043
_cell_angle_gamma        92.8252
_cell_volume          1193.310406
_space_group_crystal_system triclinic
_space_group_IT_number 2
_space_group_name_H-M_alt 'P-1'
_space_group_name_Hall '-P 1'
loop_
_symmetry_equiv_pos_site_id
_symmetry_equiv_pos_as_xyz
 1 'x,y,z'
 2 '-x,-y,-z'
loop_
_atom_site_label
_atom_site_type_symbol
_atom_site_fract_x
_atom_site_fract_y
_atom_site_fract_z
C1    C     0.38004180364647 0.66258431396395 0.11504396217614 
C2    C     0.29130458514986 0.59155967978278 0.21946133241546 
C3    C     0.46388190184865 0.74459182554568 0.14677777228793 
C4    C     0.22014132790130 0.61151333913818 0.37905547283582 
C5    C     0.51780289455317 0.74892401571991 0.26279079653388 
C6    C     0.18163756117370 0.70870455331645 0.45286039756744 
C7    C     0.52976843418468 0.66503863577572 0.33141803260669 
C8    C     0.15339840885312 0.79260693493813 0.38868681172459 
C9    C     0.38585230587533 0.64928766748879 0.96921252020029 
C10   C     0.27079064524645 0.49596554946963 0.16125925202021 
C11   C     0.50686610094910 0.82353434761066 0.05170003166709 
C12   C     0.19144242618967 0.53004128076152 0.46817730164075 
C13   C     0.57249747829100 0.84047348799154 0.30365721310050 
C14   C     0.17372170931902 0.72275602416319 0.59965047797685 
C15   C     0.09472171780628 0.78702426957065 0.27596111985074 
C16   C     0.58168526263930 0.67182479831711 0.44139083556161 
C17   C     0.17124213824668 0.88787528547260 0.44938978874718 
C18   C     0.34233784319107 0.55722495087990 0.91918032611415 
C19   C     0.29881476877380 0.48038373431902 0.00871972535154 
C20   C     0.43821674728187 0.72725175735071 0.87275083903355 
C21   C     0.22102303569014 0.41696678761211 0.25655285166182 
C22   C     0.48898763036896 0.81396744159532 0.91630748428087 
C23   C     0.19358829861870 0.43261143253897 0.40311622268550 
C24   C     0.56954113233001 0.91229572369773 0.09102396982963 
C25   C     0.16271486522669 0.54675379467803 0.62082587900211 
C26   C     0.59178441802571 0.92290671300768 0.21798513718153 
C27   C     0.16494531441451 0.64020360859443 0.68132258976569 
C28   C     0.09038331824971 0.87426070999309 0.20762632160629 
C29   C     0.61842085368043 0.84636087620883 0.42129645753084 
C30   C     0.17580026432669 0.81946291757453 0.66441775664508 
C31   C     0.02753801062770 0.70087186626793 0.23888072358870 
C32   C     0.62340734883054 0.76373513733708 0.48950263207118 
C33   C     0.18451898265424 0.89918966171972 0.58692567244450 
C34   C     0.16923840162899 0.97308425199805 0.37641919038733 
C35   C     0.13764275530910 0.96619510211510 0.25490258354799 
C36   C     0.96448615237158 0.69914523081953 0.13768898409643 
C37   C     0.02842504007036 0.87013749661101 0.10164585614616 
C38   C     0.96567818602262 0.78427032662679 0.06692030180703 
H1    H     0.49956161358782 0.59342646097285 0.29516538495133 
H2    H     0.59060792614940 0.60558498105623 0.49062235147912 
H3    H     0.35295804732962 0.54821142427102 0.80542864002610 
H4    H     0.28071536645164 0.40701455329105 0.96654054310421 
H5    H     0.43451472132862 0.71694094341746 0.76469938978627 
H6    H     0.21076624169118 0.34364100828240 0.20910634427281 
H7    H     0.52305937390704 0.87538112018726 0.84524504844054 
H8    H     0.16553553091354 0.37147789881636 0.47400184381542 
H9    H     0.59810492152134 0.97204441594207 0.01750367187117 
H10   H     0.14525518639296 0.48377902860278 0.68662456613294 
H11   H     0.63309003305071 0.99235707172370 0.25063549337354 
H12   H     0.15376898647291 0.65335956016949 0.79496131483346 
H13   H     0.65323145580167 0.91763275851782 0.45485089812360 
H14   H     0.17468285253793 0.82803208919194 0.77469946457064 
H15   H     0.02335485975128 0.63462106549257 0.29322397531595 
H16   H     0.66290761042933 0.76907093666938 0.57716690640761 
H17   H     0.19126725548168 0.97318872531351 0.63381194762242 
H18   H     0.19008493486234 0.04453029600754 0.42238552941701 
H19   H     0.13650345223747 0.03157942390993 0.19989221485799 
H20   H     0.91206129284808 0.63160689477335 0.11399061279257 
H21   H     0.02703175475528 0.93768694065336 0.05126421078912 
H22   H     0.91417168798455 0.78308199044948 0.98864372538687 
