data_stdin
_audit_creation_method 'critic2'
_audit_creation_date 2023-8-11
_chemical_formula_sum 'C38 H22'
_cell_formula_units_Z 4
_cell_length_a        12.1237306834
_cell_length_b        16.5713524701
_cell_length_c        13.9090215522
_cell_angle_alpha        89.9999
_cell_angle_beta        59.9116
_cell_angle_gamma        90.0000
_cell_volume          2417.874966
_space_group_crystal_system monoclinic
_space_group_IT_number 15
_space_group_name_H-M_alt 'C2/c'
_space_group_name_Hall '-C 2yc'
loop_
_symmetry_equiv_pos_site_id
_symmetry_equiv_pos_as_xyz
 1 'x,y,z'
 2 '-1/2-x,-1/2-y,-z'
 3 '-1/2-x,y,-1/2-z'
 4 'x,-1/2-y,-1/2+z'
 5 '-1/2+x,-1/2+y,z'
 6 '-x,-y,-z'
 7 '-x,-1/2+y,-1/2-z'
 8 '-1/2+x,-y,-1/2+z'
loop_
_atom_site_label
_atom_site_type_symbol
_atom_site_fract_x
_atom_site_fract_y
_atom_site_fract_z
C1    C     0.19118340533991 0.23491943767396 0.87829119290139 
C2    C     0.21422513689502 0.30577856509072 0.81007130732075 
C3    C     0.27305350870623 0.16496347399689 0.84656901453649 
C4    C     0.40896419801368 0.16682172355512 0.76812467394145 
C5    C     0.48076828609500 0.23921456983592 0.73337358176985 
C6    C     0.07856149367737 0.23452698439466 0.98479398507814 
C7    C     0.15957985734768 0.38007288208880 0.86468176131016 
C8    C     0.21941312341071 0.09089830744809 0.90201799617617 
C9    C     0.47767056036217 0.09247878523678 0.73131172856587 
C10   C     0.61056227243819 0.23887066201924 0.65963101534354 
C11   C     0.01508973244876 0.30847330181645 0.03339273673819 
C12   C     0.06159344601181 0.37981442613256 0.97832202257870 
C13   C     0.03108851904722 0.16020145227070 0.04225098113437 
C14   C     0.20268918945718 0.45381842984374 0.80448793002049 
C15   C     0.09535432132861 0.08970473532886 0.99788007038485 
C16   C     0.29116168856717 0.01780881117692 0.86414746974690 
C17   C     0.41440561826384 0.01797004970031 0.77866235238930 
C18   C     0.60989672440132 0.09372968517585 0.65304367562591 
C19   C     0.67571885540032 0.16557326050293 0.61620939277333 
H1    H     0.43330210709122 0.29613133939942 0.76829308180785 
H2    H     0.66301756565350 0.29561074902808 0.63562564941654 
H3    H     0.93381062667438 0.30733409700297 0.11756425790949 
H4    H     0.02220502030188 0.43719608009729 0.01926486949652 
H5    H     0.94116971967511 0.16064362457648 0.12078290523424 
H6    H     0.16229713352687 0.51044019988403 0.84753834461498 
H7    H     0.05589063375536 0.03214609676420 0.03823929547666 
H8    H     0.24464982509350 0.96172775921362 0.90569950331032 
H9    H     0.46853333596392 0.96201592365597 0.74950820125563 
H10   H     0.65961178520197 0.03633156504869 0.62490505629197 
H11   H     0.77762581209040 0.16576672986038 0.55687916699786 
