data_stdin
_audit_creation_method 'critic2'
_audit_creation_date 2023-8-11
_chemical_formula_sum 'C38 H22'
_cell_formula_units_Z 2
_cell_length_a        14.6508926445
_cell_length_b        10.2650430876
_cell_length_c        10.2566991729
_cell_angle_alpha       107.6443
_cell_angle_beta        60.4659
_cell_angle_gamma       114.8545
_cell_volume          1208.765318
_space_group_crystal_system triclinic
_space_group_IT_number 2
_space_group_name_H-M_alt 'P-1'
_space_group_name_Hall '-P 1'
loop_
_symmetry_equiv_pos_site_id
_symmetry_equiv_pos_as_xyz
 1 'x,y,z'
 2 '-x,-y,-z'
loop_
_atom_site_label
_atom_site_type_symbol
_atom_site_fract_x
_atom_site_fract_y
_atom_site_fract_z
C1    C     0.37815396052786 0.33423053012254 0.92629865710018 
C2    C     0.30995083132997 0.21804686869250 0.02002329117860 
C3    C     0.34646789828988 0.45437002490897 0.93829077139687 
C4    C     0.18990702382503 0.16947215803203 0.09145697001457 
C5    C     0.26809310444973 0.50988390123240 0.07614796255645 
C6    C     0.12181990410199 0.19533840672754 0.04358033370830 
C7    C     0.23356293366493 0.47463305368296 0.22039803684276 
C8    C     0.15353101181849 0.21529687415340 0.89168726366909 
C9    C     0.48455742457568 0.32860087076609 0.81332884035088 
C10   C     0.36442769250395 0.14351726913871 0.03959658504572 
C11   C     0.40181121213365 0.53030780890798 0.81060270133934 
C12   C     0.13529029087916 0.09501918666584 0.22032267652149 
C13   C     0.23110206585046 0.61589880766024 0.07052947455732 
C14   C     0.01546149272329 0.20188833832175 0.15583479521784 
C15   C     0.23190122680327 0.15604368009099 0.75752281096605 
C16   C     0.15986190585716 0.53092140228816 0.34994147268291 
C17   C     0.09818215464947 0.28767188561250 0.87128980937482 
C18   C     0.53307083599877 0.23969937678727 0.82376593639773 
C19   C     0.47796277829649 0.15953089280529 0.94147045847612 
C20   C     0.54195699428046 0.41303582355102 0.69157989060487 
C21   C     0.30421510768973 0.05242297243834 0.15627835362778 
C22   C     0.49761058135405 0.50341534200508 0.68534544250191 
C23   C     0.19532607429952 0.03807809932436 0.25089261955293 
C24   C     0.36383303766021 0.63714443367783 0.80929584718156 
C25   C     0.02179439700161 0.07967151368906 0.31803416981589 
C26   C     0.27831559774697 0.67449375162135 0.93270852331892 
C27   C     0.96687292810087 0.14268100711857 0.29325170384182 
C28   C     0.26876310061410 0.19873473583845 0.61447033675167 
C29   C     0.15279399159030 0.66836896488234 0.20408358722678 
C30   C     0.95811469776222 0.26636503860202 0.12899134454430 
C31   C     0.26657142449495 0.04647411425058 0.75797403033585 
C32   C     0.11619887214147 0.62562769715629 0.34181175858197 
C33   C     0.00243927016856 0.31704563649352 0.99420293823036 
C34   C     0.13606067657269 0.32706493973335 0.72643115388096 
C35   C     0.22148542014084 0.28925177821840 0.60329651242564 
C36   C     0.34032460123819 0.99094623957270 0.62774247112199 
C37   C     0.34704084275155 0.14371233538185 0.48341228894933 
C38   C     0.38383416052834 0.04281913235308 0.48933799661508 
H1    H     0.26862950079729 0.40534741619928 0.22977795159999 
H2    H     0.13605361088584 0.50277735908602 0.45919973268698 
H3    H     0.61717411639422 0.24381622766190 0.74142558322718 
H4    H     0.51879967598532 0.10355070771785 0.95941807027906 
H5    H     0.62041152499230 0.40125719465143 0.60211145450460 
H6    H     0.34713860286092 0.99824868053130 0.17242851339285 
H7    H     0.53792374182448 0.56190687003357 0.58831110239716 
H8    H     0.15225507569742 0.97863263392422 0.34783436969853 
H9    H     0.40528335975382 0.68832904632658 0.70671176343118 
H10   H     0.98083043274834 0.02055024382471 0.41471980390691 
H11   H     0.24903903857250 0.75525235244081 0.93086239951812 
H12   H     0.88281594142504 0.14097183069889 0.37339883258036 
H13   H     0.12443743618732 0.74708514805978 0.19641386134810 
H14   H     0.87969873067959 0.27733846205081 0.21939556614215 
H15   H     0.23159084915735 0.00188240366365 0.86230892482133 
H16   H     0.05684849903045 0.66782717083462 0.44399076753419 
H17   H     0.96214475374815 0.37378830144212 0.97613025304450 
H18   H     0.09459284399544 0.38820495785727 0.71689291157088 
H19   H     0.25066937253728 0.32042141512550 0.49321672584776 
H20   H     0.36428080901264 0.90566551964016 0.63191337772505 
H21   H     0.37522091998226 0.17972406544714 0.37630632054460 
H22   H     0.44320214328455 0.00021251481829 0.38759067878910 
