data_stdin
_audit_creation_method 'critic2'
_audit_creation_date 2023-8-11
_chemical_formula_sum 'C38 H22'
_cell_formula_units_Z 4
_cell_length_a         9.8204716798
_cell_length_b         9.9728374031
_cell_length_c        26.4216977158
_cell_angle_alpha        89.9987
_cell_angle_beta        71.8447
_cell_angle_gamma        89.9994
_cell_volume          2458.860337
_space_group_crystal_system monoclinic
_space_group_IT_number 14
_space_group_name_H-M_alt 'P2_1/c'
_space_group_name_Hall '-P 2ybc'
loop_
_symmetry_equiv_pos_site_id
_symmetry_equiv_pos_as_xyz
 1 'x,y,z'
 2 '-x,-y,-z'
 3 '-x,-1/2+y,-1/2-z'
 4 'x,-1/2-y,-1/2+z'
loop_
_atom_site_label
_atom_site_type_symbol
_atom_site_fract_x
_atom_site_fract_y
_atom_site_fract_z
C1    C     0.14078301800995 0.93552534929498 0.42499172661287 
C2    C     0.24655389176667 0.83980418073851 0.43013589797672 
C3    C     0.01990426365566 0.90543267571944 0.40655454015645 
C4    C     0.28566235836255 0.71894580890347 0.39863471629249 
C5    C     0.95073500328644 0.77515992301944 0.41094920083810 
C6    C     0.25971521933325 0.69713056396702 0.34832280564016 
C7    C     0.97467528885011 0.67005565761487 0.44328393189898 
C8    C     0.24991749841551 0.80121712509888 0.31156431866095 
C9    C     0.15738460875826 0.07058840540774 0.43983898569475 
C10   C     0.31991830048347 0.86801611372650 0.46775635203503 
C11   C     0.95485496667191 0.01370353372775 0.38759132414174 
C12   C     0.34887191561624 0.61261288630812 0.41958335973341 
C13   C     0.84152945203988 0.75384421850266 0.38633416952701 
C14   C     0.24216481592482 0.56186297893436 0.33414715206995 
C15   C     0.32422192969541 0.92881188480250 0.30596176664303 
C16   C     0.90443899588317 0.54838828325375 0.44777197899157 
C17   C     0.17425350708181 0.77153539829150 0.27496936546635 
C18   C     0.24791019568562 0.10038723584297 0.47125827872749 
C19   C     0.31634217231298 0.99977987391964 0.48881222833908 
C20   C     0.08198927017356 0.17602178142292 0.42395167258124 
C21   C     0.39939802449713 0.76471616088303 0.48315484817548 
C22   C     0.99150285858313 0.14871388642615 0.39512826042233 
C23   C     0.40535582657051 0.63878694772963 0.46215059409068 
C24   C     0.84642522517340 0.98865734505911 0.36327706746988 
C25   C     0.35215498593835 0.48065440445172 0.39864093896527 
C26   C     0.79548900641266 0.86251695481742 0.36056392657509 
C27   C     0.28945247791331 0.45483005600865 0.36011826207726 
C28   C     0.29577525702881 0.02969173635530 0.27200851130730 
C29   C     0.77312509302601 0.62746899291791 0.39056433418935 
C30   C     0.17616610602129 0.53446255627483 0.29434973510527 
C31   C     0.43410190320467 0.95575350110700 0.32882116899332 
C32   C     0.80544905398008 0.52495054723485 0.41999229380659 
C33   C     0.13270147107803 0.63724928804295 0.26880750577425 
C34   C     0.14699030051254 0.87488654093580 0.24199562123671 
C35   C     0.20109068383290 0.00096619803799 0.24201049713192 
C36   C     0.50384544587282 0.07791816860586 0.32207314899406 
C37   C     0.36785125725174 0.15443838451129 0.26614331967204 
C38   C     0.46912763567113 0.17959752436352 0.29127174321956 
H1    H     0.04750606048178 0.68710331120792 0.46619019164221 
H2    H     0.92387181091710 0.47074761861466 0.47362822974446 
H3    H     0.25335759365909 0.20362227033888 0.48387287260092 
H4    H     0.37219652801106 0.01963469213956 0.51774197139913 
H5    H     0.10101480710003 0.27867917088643 0.43399848798254 
H6    H     0.45158539615673 0.78759383097338 0.51299659569229 
H7    H     0.93913409105282 0.22963386334217 0.38051734023189 
H8    H     0.45778291365545 0.55708608617001 0.47610262015494 
H9    H     0.80436113374208 0.07386145831939 0.34708417198093 
H10   H     0.39830821237194 0.39982777838268 0.41580057803335 
H11   H     0.71380827468230 0.84443590943466 0.34134934217103 
H12   H     0.27953095672754 0.35261930600932 0.34734510588046 
H13   H     0.69040505604709 0.61390061725378 0.37150141819667 
H14   H     0.15817622867012 0.43032456510289 0.28571219836581 
H15   H     0.46520303070388 0.87831743532768 0.35187962216798 
H16   H     0.75135866355816 0.42849485342488 0.42342515806518 
H17   H     0.07414772751011 0.61690640601809 0.24080290476527 
H18   H     0.08269428111695 0.85065741742789 0.21622158110123 
H19   H     0.17822785868779 0.07917644836233 0.21707749616767 
H20   H     0.58709896249697 0.09503732268097 0.34051638876773 
H21   H     0.34420532464402 0.23019261973687 0.24030826861865 
H22   H     0.52389063971185 0.27576934028545 0.28624584244332 
