data_stdin
_audit_creation_method 'critic2'
_audit_creation_date 2023-8-11
_chemical_formula_sum 'C38 H22'
_cell_formula_units_Z 2
_cell_length_a        10.8450744819
_cell_length_b        13.0203526378
_cell_length_c        10.0278302036
_cell_angle_alpha        96.0212
_cell_angle_beta        57.5638
_cell_angle_gamma        94.4790
_cell_volume          1188.090833
_space_group_crystal_system triclinic
_space_group_IT_number 2
_space_group_name_H-M_alt 'P-1'
_space_group_name_Hall '-P 1'
loop_
_symmetry_equiv_pos_site_id
_symmetry_equiv_pos_as_xyz
 1 'x,y,z'
 2 '-x,-y,-z'
loop_
_atom_site_label
_atom_site_type_symbol
_atom_site_fract_x
_atom_site_fract_y
_atom_site_fract_z
C1    C     0.86958407200371 0.34417930779708 0.00413888400377 
C2    C     0.78246899657822 0.41453409868322 0.98746571191424 
C3    C     0.95315027747379 0.26103175016195 0.88967089720505 
C4    C     0.71493789088669 0.39005766071614 0.89636221376267 
C5    C     0.00374785360767 0.25612595695607 0.72248232395599 
C6    C     0.68007957658165 0.28625827037206 0.85696365894109 
C7    C     0.01306895329426 0.34318107911718 0.64353205773962 
C8    C     0.65649029081415 0.19721590670452 0.94414677535015 
C9    C     0.87338327436876 0.35951209555862 0.14480878265596 
C10   C     0.75957202813060 0.51454557863226 0.06843424437763 
C11   C     0.99841462331995 0.18152390879052 0.94035180819285 
C12   C     0.68572013405565 0.47414638748593 0.83778259831632 
C13   C     0.05708064702488 0.16088525501371 0.62821590277880 
C14   C     0.67143244794848 0.27057204497480 0.71912848177280 
C15   C     0.60145697527225 0.20102491792485 0.11243046023133 
C16   C     0.06067928136085 0.33540471285626 0.48448345624857 
C17   C     0.67547345186997 0.09761210470044 0.86348906930463 
C18   C     0.82580480258729 0.45398212871604 0.24108360224395 
C19   C     0.78296818385800 0.53262371939944 0.19575482732402 
C20   C     0.92763420497761 0.28146055427255 0.18762499545864 
C21   C     0.71156383168045 0.59530538995675 0.02263298045332 
C22   C     0.98149348546013 0.19262772058581 0.09207742218368 
C23   C     0.68672622001541 0.57701791834044 0.90217774448951 
C24   C     0.06190625727387 0.09026367187931 0.83888729691675 
C25   C     0.65751530205164 0.45489848394535 0.71403200519703 
C26   C     0.08068233591420 0.07704093708475 0.69231524550853 
C27   C     0.66069432931963 0.35652492772800 0.64939985062132 
C28   C     0.60373583038045 0.10997202800091 0.17962107554879 
C29   C     0.09649725867592 0.15332245906577 0.46832500855912 
C30   C     0.67465728019149 0.16878420129931 0.65010143572879 
C31   C     0.53147677292074 0.28802467313169 0.21842231530174 
C32   C     0.09853883589620 0.23885961775649 0.39678600376418 
C33   C     0.68575559390342 0.08560375648815 0.71514109977114 
C34   C     0.67777333719619 0.00840946918307 0.93371389961489 
C35   C     0.65150210939619 0.01519940259090 0.08338140517179 
C36   C     0.47078726409896 0.28702115187091 0.37970688612443 
C37   C     0.54606885729913 0.11212018911654 0.34432308358834 
C38   C     0.47939172358920 0.19872235741561 0.44393180142654 
H1    H     0.98424668743149 0.41808621260745 0.70926370693891 
H2    H     0.06888626781495 0.40433256214125 0.42701771356587 
H3    H     0.83223647014283 0.46399040124067 0.34635662480495 
H4    H     0.76211121953187 0.60895909503190 0.25849845418851 
H5    H     0.92325665970754 0.29348637201412 0.29915829866780 
H6    H     0.70016732727182 0.67223050231766 0.08177432555767 
H7    H     0.01800640714328 0.13089976324660 0.12739763862948 
H8    H     0.66085581785368 0.63988823013484 0.85850989222139 
H9    H     0.09314271918437 0.03042998585894 0.88258565531360 
H10   H     0.63947054224907 0.52023273008552 0.66764598617103 
H11   H     0.12180461251722 0.00500844076470 0.61903585349768 
H12   H     0.64945095900110 0.34175703310067 0.54737680581995 
H13   H     0.12837584346866 0.07855451870578 0.40158046381506 
H14   H     0.67238448247719 0.15938439293897 0.54217790928190 
H15   H     0.52321157060215 0.35682524678670 0.17176672033967 
H16   H     0.13265375958511 0.23246670346086 0.27253436258256 
H17   H     0.69215592042471 0.00793622794972 0.66030290770598 
H18   H     0.69751952790013 0.93387829735626 0.86603496323328 
H19   H     0.65376665410624 0.94686787167638 0.13604897916735 
H20   H     0.41506246682348 0.35481317812978 0.45753437180045 
H21   H     0.55106768428274 0.04187043280524 0.39143125440421 
H22   H     0.43088871374584 0.19803176023177 0.57117507806049 
