data_stdin
_audit_creation_method 'critic2'
_audit_creation_date 2023-8-11
_chemical_formula_sum 'C38 H22'
_cell_formula_units_Z 8
_cell_length_a        27.8997409028
_cell_length_b         9.7022319922
_cell_length_c        18.1426178603
_cell_angle_alpha        89.9987
_cell_angle_beta        90.1544
_cell_angle_gamma        89.9998
_cell_volume          4911.003009
_space_group_crystal_system monoclinic
_space_group_IT_number 15
_space_group_name_H-M_alt 'C2/c'
_space_group_name_Hall '-C 2yc'
loop_
_symmetry_equiv_pos_site_id
_symmetry_equiv_pos_as_xyz
 1 'x,y,z'
 2 '-x,-y,-z'
 3 '-x,-1/2+y,-1/2-z'
 4 'x,-1/2-y,-1/2+z'
 5 '-1/2+x,-1/2+y,-1/2+z'
 6 '-1/2-x,-1/2-y,-1/2-z'
 7 '-1/2-x,y,-z'
 8 '-1/2+x,-y,z'
loop_
_atom_site_label
_atom_site_type_symbol
_atom_site_fract_x
_atom_site_fract_y
_atom_site_fract_z
C1    C     0.66699017386208 0.28823478020282 0.30979971880323 
C2    C     0.70165769833049 0.36933117922489 0.35047728495128 
C3    C     0.62533371263237 0.34238740695666 0.27205098534549 
C4    C     0.69095581330347 0.49846004713599 0.38659123721995 
C5    C     0.62177465909666 0.48132180937526 0.24266300387897 
C6    C     0.64314893778982 0.54282035645301 0.40617576561856 
C7    C     0.66183946596431 0.56961927008942 0.23423550468068 
C8    C     0.60312954936233 0.45267341046649 0.42251221132090 
C9    C     0.67521469708009 0.14344811740300 0.30588316666391 
C10   C     0.74915200843040 0.31703155823729 0.35660356948011 
C11   C     0.58704770780685 0.25009304970627 0.25615001200917 
C12   C     0.72988689652118 0.58952556748565 0.40138855985030 
C13   C     0.57684585096494 0.52902331186548 0.21419435170923 
C14   C     0.63505439590271 0.68789032871395 0.40935039456696 
C15   C     0.60754632456605 0.31473104625690 0.45333039088218 
C16   C     0.65760167681673 0.69963119564012 0.20377523722847 
C17   C     0.55614325995275 0.50793672099758 0.41466336452820 
C18   C     0.72154738995907 0.08958177288905 0.32202969861200 
C19   C     0.75841051288002 0.17601927144468 0.34035346657053 
C20   C     0.63745306373555 0.05354208610746 0.28417408637981 
C21   C     0.78700722902952 0.40517616816535 0.38050772614631 
C22   C     0.59357515721442 0.10542342947927 0.26505593064376 
C23   C     0.77790366478703 0.53941870429320 0.39860007509009 
C24   C     0.54264898843044 0.30125231847620 0.22793025100234 
C25   C     0.72058836986564 0.73090955256243 0.41680692697912 
C26   C     0.53701982040853 0.43703804171519 0.21033638248454 
C27   C     0.67464073555133 0.78020554314679 0.41482066759967 
C28   C     0.56536072678950 0.23236148613008 0.46281066927636 
C29   C     0.57297287726103 0.66450941812787 0.18577129851971 
C30   C     0.58740909655320 0.74036008038531 0.40656324927675 
C31   C     0.65106988658395 0.25994512526065 0.48108022846091 
C32   C     0.61257254457774 0.74929537037505 0.18054134074293 
C33   C     0.54929793995946 0.65201922299920 0.40364673635872 
C34   C     0.51509969493636 0.42131787308380 0.42234257103719 
C35   C     0.51956643239375 0.28709142212428 0.44362828772280 
C36   C     0.65350259079552 0.13058913434901 0.51291362455932 
C37   C     0.56885390630798 0.10016998628730 0.49547425635006 
C38   C     0.61215294454074 0.04874821878926 0.52012272879371 
H1    H     0.69700436785839 0.53384377868468 0.25111854851621 
H2    H     0.68939551715779 0.76378002994450 0.19799264998907 
H3    H     0.72736004504862 0.97923106639508 0.31546983649601 
H4    H     0.79494461044696 0.13801554270273 0.34559555016759 
H5    H     0.64394723403291 0.94291858235839 0.28431046509468 
H6    H     0.82330272337039 0.36417342336543 0.38212105094358 
H7    H     0.56395725810069 0.03670354711639 0.25141850486568 
H8    H     0.80689856368063 0.60894890875368 0.41405198559668 
H9    H     0.51323543885868 0.22877507979415 0.22030859981312 
H10   H     0.75087391104052 0.79955301669722 0.42649118040467 
H11   H     0.50304097894118 0.47527436535062 0.18874273289672 
H12   H     0.66735407150957 0.89002037708303 0.42010902576833 
H13   H     0.53807063936886 0.69985262604507 0.16652732538083 
H14   H     0.58233153435249 0.85167847027496 0.40531833387934 
H15   H     0.68337814535239 0.32177953542215 0.47920532166794 
H16   H     0.60919522786704 0.85267318652174 0.15765516003839 
H17   H     0.51281090076418 0.69077891171400 0.39857862061776 
H18   H     0.47983947795915 0.46660709921673 0.41315880988240 
H19   H     0.48795907644044 0.22272505323514 0.45097870245499 
H20   H     0.68782751948994 0.09316937922071 0.53339528660412 
H21   H     0.53608453183840 0.04054915226295 0.50256811709098 
H22   H     0.61413192614930 0.94789174072654 0.54629729163930 
