data_stdin
_audit_creation_method 'critic2'
_audit_creation_date 2023-8-11
_chemical_formula_sum 'C38 H22'
_cell_formula_units_Z 2
_cell_length_a        15.3298620126
_cell_length_b         9.9113633260
_cell_length_c         8.0294965900
_cell_angle_alpha        86.6032
_cell_angle_beta        86.6003
_cell_angle_gamma        78.0085
_cell_volume          1189.901326
_space_group_crystal_system triclinic
_space_group_IT_number 2
_space_group_name_H-M_alt 'P-1'
_space_group_name_Hall '-P 1'
loop_
_symmetry_equiv_pos_site_id
_symmetry_equiv_pos_as_xyz
 1 'x,y,z'
 2 '-x,-y,-z'
loop_
_atom_site_label
_atom_site_type_symbol
_atom_site_fract_x
_atom_site_fract_y
_atom_site_fract_z
C1    C     0.26248991839400 0.35682912553073 0.26084796285836 
C2    C     0.35339440254837 0.27845979337365 0.25633542114825 
C3    C     0.18344498065453 0.29828009903386 0.26503353064287 
C4    C     0.38157536715565 0.14395634343478 0.18704069291298 
C5    C     0.17916062188544 0.15988321072795 0.33034032542138 
C6    C     0.33265781859012 0.08935157940940 0.06745551153540 
C7    C     0.24483522529026 0.07883063496502 0.43163027251287 
C8    C     0.27241460167032 0.17067009408210 0.94968341031829 
C9    C     0.25057596166288 0.50346280764262 0.25998093235848 
C10   C     0.42044821824386 0.33967605030914 0.31861286664821 
C11   C     0.10261080164241 0.38503788627162 0.21327558737824 
C12   C     0.46186320901334 0.05857336417600 0.24401481776442 
C13   C     0.10167391849979 0.10552446263166 0.30504791518327 
C14   C     0.34562038842822 0.94272422312704 0.06528180212959 
C15   C     0.27904574195929 0.30753372139914 0.88156933923316 
C16   C     0.23871332591914 0.94745610008815 0.49166336835242 
C17   C     0.20720664360800 0.10742933921240 0.88467748706548 
C18   C     0.32240759567460 0.56509199382494 0.29898531326315 
C19   C     0.40275501436435 0.48459759207487 0.34003052750730 
C20   C     0.16692123939729 0.58818991759348 0.21936138618990 
C21   C     0.50525499817188 0.25564160927251 0.35515941416547 
C22   C     0.09683265810081 0.52990341671590 0.18612893687693 
C23   C     0.52262784524407 0.11725772052114 0.32974811498521 
C24   C     0.02591904314281 0.32805685058193 0.19188660412826 
C25   C     0.48083599870683 0.91468060413326 0.21706756763574 
C26   C     0.02683544237003 0.19157370730023 0.22848509577293 
C27   C     0.42074122431810 0.85748509612270 0.14095854518541 
C28   C     0.21096351115675 0.38267221333136 0.77716308971322 
C29   C     0.09742410886768 0.96996120374639 0.36607556193754 
C30   C     0.28305371333443 0.88162113216807 0.98827489234780 
C31   C     0.35366251834595 0.36801968152040 0.90102026838935 
C32   C     0.16527344192591 0.89089012856882 0.45648448170664 
C33   C     0.21180345499781 0.96288294215022 0.91247446316656 
C34   C     0.14036666412311 0.18580007591625 0.78127836139683 
C35   C     0.14053747347600 0.31989257111131 0.73255918617259 
C36   C     0.35766183211606 0.49861405229400 0.83463482016370 
C37   C     0.21613607154826 0.51662529574242 0.71157441351988 
C38   C     0.28736341916058 0.57534683727163 0.74194609703963 
H1    H     0.29990349139538 0.12255937473401 0.46716494948440 
H2    H     0.28998930807744 0.88931967321913 0.57096980480084 
H3    H     0.31049239390299 0.67711205429804 0.30293005255246 
H4    H     0.45596187149207 0.53054353608918 0.38131694705503 
H5    H     0.16091553946896 0.69981136435006 0.21097986154065 
H6    H     0.55429370852595 0.30302196623272 0.40956500074177 
H7    H     0.03414640718008 0.59387320482639 0.14662154733295 
H8    H     0.58425429489605 0.04993862728421 0.36873517369423 
H9    H     0.96642546507577 0.39630859136484 0.14488423616952 
H10   H     0.54177372736749 0.85099226180805 0.26452094459970 
H11   H     0.96883105986142 0.14814144382892 0.20816952531162 
H12   H     0.43103517706871 0.74614325153036 0.13060581370367 
H13   H     0.03802162922175 0.93042078356795 0.34471433158458 
H14   H     0.29195565656068 0.76954326177931 0.99448449829668 
H15   H     0.40969480852087 0.31011150279847 0.96848028004015 
H16   H     0.16052660105939 0.78739711530987 0.50405311341553 
H17   H     0.16104970146124 0.91725271921406 0.86117845660842 
H18   H     0.09066645640363 0.13403460826072 0.73694520177812 
H19   H     0.09044141336431 0.37795354112791 0.65044852332368 
H20   H     0.41597021438355 0.54159606585996 0.85388938543509 
H21   H     0.16324637471862 0.57085341178401 0.63262950091432 
H22   H     0.29041543523754 0.67856011536633 0.69109825222332 
