data_stdin
_audit_creation_method 'critic2'
_audit_creation_date 2023-8-11
_chemical_formula_sum 'C38 H22'
_cell_formula_units_Z 8
_cell_length_a        28.4123122350
_cell_length_b         9.7894706761
_cell_length_c        17.0207899864
_cell_angle_alpha        90.0002
_cell_angle_beta        89.9996
_cell_angle_gamma        90.0004
_cell_volume          4734.188015
_space_group_crystal_system orthorhombic
_space_group_IT_number 61
_space_group_name_H-M_alt 'Pbca'
_space_group_name_Hall '-P 2ac 2ab'
loop_
_symmetry_equiv_pos_site_id
_symmetry_equiv_pos_as_xyz
 1 'x,y,z'
 2 '-x,-y,-z'
 3 '-1/2+x,-1/2-y,-z'
 4 '-1/2-x,-1/2+y,z'
 5 '-x,-1/2+y,-1/2-z'
 6 'x,-1/2-y,-1/2+z'
 7 '-1/2-x,-y,-1/2+z'
 8 '-1/2+x,y,-1/2-z'
loop_
_atom_site_label
_atom_site_type_symbol
_atom_site_fract_x
_atom_site_fract_y
_atom_site_fract_z
C1    C     0.39002563928517 0.60530393171415 0.21390886734401 
C2    C     0.35024833534487 0.68159349807699 0.24401181481028 
C3    C     0.43010033374584 0.66238260607073 0.17263500102960 
C4    C     0.33429860539525 0.81064574325444 0.21248810991870 
C5    C     0.44681638374915 0.80192388419442 0.18137778508944 
C6    C     0.34489962683689 0.85769791815069 0.13397592927137 
C7    C     0.43248552292997 0.88916255442750 0.24327983708726 
C8    C     0.35498433291130 0.76979653540835 0.06785818064234 
C9    C     0.38971351713449 0.46150171668989 0.22717048131694 
C10   C     0.32491986678997 0.62627097401122 0.30889056592402 
C11   C     0.45812190464064 0.57277330204708 0.12633236518397 
C12   C     0.30890173809098 0.89944869311564 0.26353448604008 
C13   C     0.48264772487293 0.85233580239998 0.12980491200176 
C14   C     0.34682962443581 0.00176764847635 0.12209820726752 
C15   C     0.33660320975374 0.63234048106077 0.05813097851425 
C16   C     0.44956074542051 0.02071495855709 0.25047618973789 
C17   C     0.38199963033369 0.82500937883435 0.00518891884382 
C18   C     0.35945125351415 0.40421097132431 0.28523574413366 
C19   C     0.33079773596674 0.48628832486079 0.32925934528020 
C20   C     0.42002814034608 0.37500222256527 0.18308314636424 
C21   C     0.29426671315742 0.71190772190713 0.35342828435648 
C22   C     0.45116712474845 0.42890926550395 0.13040439710350 
C23   C     0.28934690297490 0.84692727315499 0.33456282341009 
C24   C     0.49506431290369 0.62549341777361 0.07819795801140 
C25   C     0.30461007072899 0.04054009824820 0.24411212806474 
C26   C     0.50520738572334 0.76160505808163 0.07619309812746 
C27   C     0.32619416747129 0.09140090416628 0.17836639995491 
C28   C     0.35545908924528 0.54738866714483 0.99732925752679 
C29   C     0.49818414276940 0.98913070344911 0.13655742891941 
C30   C     0.36960987878418 0.05504891648266 0.05421708017859 
C31   C     0.29771396326660 0.58123782839739 0.10113534399790 
C32   C     0.48200439441166 0.07299933943531 0.19570217308962 
C33   C     0.38942348646972 0.96863296839294 0.00045309288992 
C34   C     0.40080292294836 0.73678849589558 0.94619552103012 
C35   C     0.39000144253617 0.60106839098882 0.94494785079241 
C36   C     0.27982319135032 0.45185732064465 0.08767831827627 
C37   C     0.33732303740270 0.41415248198641 0.98593217591636 
C38   C     0.30010884566011 0.36626605785430 0.03041062325846 
H1    H     0.40790729410375 0.85112006544351 0.28677846504117 
H2    H     0.43834600558287 0.08442794399852 0.29945651319541 
H3    H     0.36130856983762 0.29460606248324 0.29594332961832 
H4    H     0.31101996260090 0.44549750178939 0.37874704327674 
H5    H     0.41723182352480 0.26510282165024 0.19129296086141 
H6    H     0.27738679481937 0.66962852485960 0.40555593544186 
H7    H     0.47325994977593 0.36271360149256 0.09449841803243 
H8    H     0.27018452530297 0.91633197498098 0.37289027469171 
H9    H     0.51560512597447 0.55356948041511 0.04361475263950 
H10   H     0.28542591190133 0.10768986234912 0.28389243902953 
H11   H     0.53250507970767 0.80137233827075 0.03740463168649 
H12   H     0.32624626564179 0.20067343167897 0.16626551123918 
H13   H     0.52425494218303 0.02603386198212 0.09478809762650 
H14   H     0.37219126831292 0.16546882741944 0.04774171200615 
H15   H     0.28071170573404 0.64551240523450 0.14471184920203 
H16   H     0.49515935513773 0.17680487754896 0.20174003625564 
H17   H     0.40865462721018 0.00879175834683 0.95023813635888 
H18   H     0.42379370389247 0.78083738265734 0.90166895928057 
H19   H     0.40503851143987 0.53354372226099 0.90079183887545 
H20   H     0.24957157294493 0.41692878058336 0.12126313016828 
H21   H     0.35253414990409 0.35134646066273 0.93945665516542 
H22   H     0.28599312221753 0.26407150108272 0.02084755674632 
