data_stdin
_audit_creation_method 'critic2'
_audit_creation_date 2023-8-11
_chemical_formula_sum 'C38 H22'
_cell_formula_units_Z 4
_cell_length_a        10.8927969038
_cell_length_b        11.3162815115
_cell_length_c        20.5270837825
_cell_angle_alpha        89.9987
_cell_angle_beta        70.0859
_cell_angle_gamma        89.9996
_cell_volume          2378.990369
_space_group_crystal_system monoclinic
_space_group_IT_number 14
_space_group_name_H-M_alt 'P2_1/c'
_space_group_name_Hall '-P 2ybc'
loop_
_symmetry_equiv_pos_site_id
_symmetry_equiv_pos_as_xyz
 1 'x,y,z'
 2 '-x,-y,-z'
 3 '-x,-1/2+y,-1/2-z'
 4 'x,-1/2-y,-1/2+z'
loop_
_atom_site_label
_atom_site_type_symbol
_atom_site_fract_x
_atom_site_fract_y
_atom_site_fract_z
C1    C     0.84770261313324 0.10912728571408 0.06799623969122 
C2    C     0.75914670038623 0.03342154106576 0.11974902308912 
C3    C     0.93311333752141 0.19629906578004 0.08143986160139 
C4    C     0.70280098775354 0.06226428344077 0.19259701651128 
C5    C     0.98092803082463 0.19183212834107 0.13936828178768 
C6    C     0.68679105593832 0.18110372275425 0.22022538791523 
C7    C     0.97574346076502 0.08884720607228 0.17956814314797 
C8    C     0.67430325751024 0.28500166608759 0.18235874534095 
C9    C     0.85119551179047 0.09535004082132 0.99828310770848 
C10   C     0.72278750124634 0.92363198567486 0.09762366977170 
C11   C     0.98309660564513 0.28729296844085 0.03158829346275 
C12   C     0.66333595823446 0.96682944929890 0.24036478192802 
C13   C     0.04837537656314 0.29175556190614 0.15353709483824 
C14   C     0.68342417656901 0.19614681532356 0.28976300684225 
C15   C     0.62495682394744 0.28373119044942 0.12503230146842 
C16   C     0.02061943005482 0.08849936821242 0.23498800018212 
C17   C     0.70081794394464 0.39696969290411 0.20601960284544 
C18   C     0.79640679712806 0.99257917730676 0.97891803102592 
C19   C     0.74437968473589 0.90475782809411 0.02601926940798 
C20   C     0.91121722184138 0.18329894121349 0.94789881124190 
C21   C     0.66397912452041 0.83427513429349 0.14753598859184 
C22   C     0.96769673776385 0.28044311274188 0.96552771051658 
C23   C     0.64511593132213 0.85219968488261 0.21616148605854 
C24   C     0.05410308076440 0.38385823774356 0.04620965059341 
C25   C     0.64591925342045 0.98626497977442 0.31152301495271 
C26   C     0.08042841875456 0.38916837572158 0.10654916883887 
C27   C     0.66637904888090 0.09596171237033 0.33390333144433 
C28   C     0.64019258605629 0.38673574074827 0.08273270100733 
C29   C     0.09002909634122 0.29051203884788 0.21177405953003 
C30   C     0.69648135868621 0.31105783057583 0.31488304284451 
C31   C     0.54944717338973 0.18955504007716 0.11310832403525 
C32   C     0.07389374518135 0.19156857029570 0.25307681399480 
C33   C     0.71303394723895 0.40761320481056 0.27264387853864 
C34   C     0.71072079425194 0.49940536169642 0.16384014456082 
C35   C     0.68909165883026 0.49307722930670 0.10226053097822 
C36   C     0.50132430996725 0.19227129485373 0.05886163290183 
C37   C     0.59453112297336 0.38578399133194 0.02595293080629 
C38   C     0.52701161727733 0.28984706917536 0.01357961738177 
H1    H     0.93813369552741 0.00743555781078 0.16564307246936 
H2    H     0.01705945252637 0.00731221302275 0.26385459016028 
H3    H     0.80487655808048 0.98186718971489 0.92483793745802 
H4    H     0.71588946369714 0.82063483041551 0.00964628112718 
H5    H     0.90910407833189 0.17276627458719 0.89550941205523 
H6    H     0.63790412734428 0.75029284569617 0.12984385180167 
H7    H     0.00821951791626 0.35102096149710 0.92826440570064 
H8    H     0.60985522590663 0.78158661441807 0.25394127068408 
H9    H     0.08712770193799 0.45366359749699 0.00770584219694 
H10   H     0.62191305474806 0.91117447056361 0.34676584194490 
H11   H     0.13211460366460 0.46446521895370 0.11798791078923 
H12   H     0.66505978781635 0.10976284015799 0.38657512324505 
H13   H     0.13896353324684 0.36827704542672 0.22225125556036 
H14   H     0.69569552788721 0.31984929371782 0.36789869995562 
H15   H     0.52658870888750 0.11429415094602 0.14803768257309 
H16   H     0.10643343388463 0.19241892427093 0.29769436951741 
H17   H     0.73005143056198 0.49478918184209 0.29038263788741 
H18   H     0.73581629737459 0.58319560618428 0.18219911588229 
H19   H     0.69957287697858 0.57082099413738 0.06951561423502 
H20   H     0.44319944117838 0.11862330542710 0.05134794257184 
H21   H     0.60938624139831 0.46480348981431 0.99381327218522 
H22   H     0.49091875594775 0.29078609811864 0.97018067407132 
