data_stdin
_audit_creation_method 'critic2'
_audit_creation_date 2023-8-11
_chemical_formula_sum 'C38 H22'
_cell_formula_units_Z 4
_cell_length_a         7.5167101059
_cell_length_b         9.9153293409
_cell_length_c        32.0478919442
_cell_angle_alpha        90.0008
_cell_angle_beta        79.3930
_cell_angle_gamma        90.0001
_cell_volume          2347.737118
_space_group_crystal_system monoclinic
_space_group_IT_number 14
_space_group_name_H-M_alt 'P2_1/c'
_space_group_name_Hall '-P 2ybc'
loop_
_symmetry_equiv_pos_site_id
_symmetry_equiv_pos_as_xyz
 1 'x,y,z'
 2 '-x,-y,-z'
 3 '-x,-1/2+y,-1/2-z'
 4 'x,-1/2-y,-1/2+z'
loop_
_atom_site_label
_atom_site_type_symbol
_atom_site_fract_x
_atom_site_fract_y
_atom_site_fract_z
C1    C     0.22899198223647 0.25445283458080 0.60237004389643 
C2    C     0.21568179005983 0.17403982691451 0.56538548635867 
C3    C     0.22136560288390 0.20215647400343 0.64476690497960 
C4    C     0.12379896278402 0.04543554147205 0.56673908191124 
C5    C     0.27153573842547 0.06591654392635 0.65432484288630 
C6    C     0.98364923225299 0.00115008464024 0.60123458392679 
C7    C     0.37515269710316 0.97976181175621 0.62391401667482 
C8    C     0.86265182138936 0.08866640643223 0.62948399118212 
C9    C     0.24973715472492 0.39642559356718 0.59638058363694 
C10   C     0.29238428325596 0.22648983194710 0.52466436175301 
C11   C     0.17299464391680 0.29248439220086 0.67946543282307 
C12   C     0.17892883251227 0.95555996326343 0.53209546592295 
C13   C     0.22809280611158 0.01801356930101 0.69709599802726 
C14   C     0.96441124386759 0.85912911948582 0.60769006367505 
C15   C     0.81114411897392 0.22364947118137 0.61864734074719 
C16   C     0.41651663030784 0.84951208890504 0.63402086126682 
C17   C     0.77651702227361 0.03529174114448 0.66931287691856 
C18   C     0.30314497628398 0.44976832049547 0.55472241751176 
C19   C     0.33704545149531 0.36587984256672 0.52027604884685 
C20   C     0.21713192928069 0.48456782042580 0.63199002845969 
C21   C     0.32015046854506 0.13972879484271 0.48857414927272 
C22   C     0.16768202887848 0.43391365764039 0.67212348544300 
C23   C     0.27824217549817 0.00580266576119 0.49296084571820 
C24   C     0.13577405103086 0.24232926887921 0.72193758098754 
C25   C     0.13515853272277 0.81610243662844 0.53705994569390 
C26   C     0.15451143427602 0.10869120778392 0.73037119388100 
C27   C     0.04250012256214 0.76837686535741 0.57493956326309 
C28   C     0.70915741305591 0.30717332712364 0.65088395769323 
C29   C     0.26798024487933 0.88303359287301 0.70643773745463 
C30   C     0.86790020702864 0.80837216851560 0.64692251937796 
C31   C     0.84484937385975 0.27519755905669 0.57672803411245 
C32   C     0.35801717032277 0.79882534902619 0.67530201380851 
C33   C     0.78693754477419 0.89499796311374 0.67782948855298 
C34   C     0.67144822539300 0.12055411683999 0.70034822168000 
C35   C     0.64428279061950 0.25313716536598 0.69209785150112 
C36   C     0.79651884296146 0.40486508487609 0.56757487071375 
C37   C     0.66511787013855 0.44075114105388 0.64101366698592 
C38   C     0.70986455096944 0.49013696193199 0.60016451787535 
H1    H     0.42551417123025 0.01771961372998 0.59218912709020 
H2    H     0.49816212509213 0.78645733706787 0.61005732002905 
H3    H     0.32228859048142 0.55832884944344 0.55115809420444 
H4    H     0.39067290483072 0.40530891276857 0.48876070642373 
H5    H     0.22849018982626 0.59290352970804 0.62659135259502 
H6    H     0.38310021809074 0.18100862941032 0.45793571620616 
H7    H     0.13429691885755 0.50112684314199 0.69934561945274 
H8    H     0.31391547103666 0.93641284155278 0.46641341540176 
H9    H     0.09045035520301 0.31332285363893 0.74760873617436 
H10   H     0.18415665970808 0.74799782814941 0.51081843321166 
H11   H     0.12358100729403 0.07079146896366 0.76282588009597 
H12   H     0.01962799590797 0.66072840667673 0.58009174367662 
H13   H     0.22930207271223 0.84734021929841 0.73897948338024 
H14   H     0.86251539519213 0.69957885427617 0.65181730844206 
H15   H     0.91003169491153 0.21115166162659 0.55101036729881 
H16   H     0.38906546109141 0.69548289817284 0.68296379387170 
H17   H     0.71729707114200 0.85709963712200 0.70836548973657 
H18   H     0.61080095682566 0.07623009113089 0.73076941684891 
H19   H     0.56355363662210 0.31743334446111 0.71590277823243 
H20   H     0.82628840241978 0.44118570832318 0.53495059304874 
H21   H     0.59013089864530 0.50290729034528 0.66632233516051 
H22   H     0.67465226212838 0.59301869855856 0.59302423173105 
