data_stdin
_audit_creation_method 'critic2'
_audit_creation_date 2023-8-11
_chemical_formula_sum 'C38 H22'
_cell_formula_units_Z 4
_cell_length_a         8.3411335176
_cell_length_b        20.2422460965
_cell_length_c        15.0759137980
_cell_angle_alpha        90.0002
_cell_angle_beta        69.6198
_cell_angle_gamma        89.9991
_cell_volume          2386.125869
_space_group_crystal_system monoclinic
_space_group_IT_number 14
_space_group_name_H-M_alt 'P2_1/c'
_space_group_name_Hall '-P 2ybc'
loop_
_symmetry_equiv_pos_site_id
_symmetry_equiv_pos_as_xyz
 1 'x,y,z'
 2 '-x,-y,-z'
 3 '-x,-1/2+y,-1/2-z'
 4 'x,-1/2-y,-1/2+z'
loop_
_atom_site_label
_atom_site_type_symbol
_atom_site_fract_x
_atom_site_fract_y
_atom_site_fract_z
C1    C     0.18202173951383 0.80431180003843 0.31036997015595 
C2    C     0.00752345002580 0.82758664007134 0.34225620013543 
C3    C     0.33047956055600 0.84595902000177 0.27159734004123 
C4    C     0.95294825985524 0.88618359006697 0.30620149981239 
C5    C     0.33440962985436 0.91577235995343 0.29244592010502 
C6    C     0.04335047994561 0.91476622985709 0.21448413980308 
C7    C     0.21144332994262 0.94665775990833 0.37135367027009 
C8    C     0.15097431021003 0.87839063980311 0.13287228974432 
C9    C     0.20809120019981 0.73536114983442 0.31791696985043 
C10   C     0.88057014027200 0.78962801980128 0.41096799966601 
C11   C     0.48663150025785 0.81607134021795 0.21486473969952 
C12   C     0.80234255008799 0.91831918010790 0.36587551997774 
C13   C     0.47626095037179 0.95482469988777 0.23642627971576 
C14   C     0.02398062987827 0.98419839985224 0.20520601993496 
C15   C     0.13647589956625 0.80796856010566 0.11775961019722 
C16   C     0.21881143047928 0.01342956018645 0.38871509010776 
C17   C     0.27241428059462 0.91471900018933 0.05881798986386 
C18   C     0.07233514940054 0.69554731990119 0.37748072007107 
C19   C     0.91726981994209 0.72300484019004 0.42773049028316 
C20   C     0.37005974057585 0.70722897000101 0.26638478971032 
C21   C     0.71793503050663 0.81865468019060 0.46041720979926 
C22   C     0.50182991027881 0.74597728017533 0.21161994010240 
C23   C     0.68543049001818 0.88281034975901 0.44321195009326 
C24   C     0.62948888978329 0.85625092987997 0.16340570018915 
C25   C     0.77331130974205 0.98559102012614 0.34846963030098 
C26   C     0.62173093952898 0.92347996976268 0.16975278013926 
C27   C     0.88949378986523 0.01883838008955 0.27488689963992 
C28   C     0.26764680951461 0.77569240016228 0.04230893030579 
C29   C     0.47683365052581 0.02360583023572 0.25295988000664 
C30   C     0.13857551034231 0.01841612984192 0.12596156967489 
C31   C     0.99180664988268 0.76965558992858 0.16932006026359 
C32   C     0.34938276944248 0.05297755020131 0.32708760025354 
C33   C     0.26521660955952 0.98499926998743 0.05792237007730 
C34   C     0.40040930978180 0.88093028991806 0.98390201016103 
C35   C     0.40328776949165 0.81362910013294 0.97848257001443 
C36   C     0.98327607962230 0.70270716977253 0.15316089985959 
C37   C     0.25655457054694 0.70703013977658 0.02738667005791 
C38   C     0.11815161980179 0.67055499016994 0.08290212988370 
H1    H     0.11108560004793 0.91674246991025 0.42002738989906 
H2    H     0.12465409997168 0.03553909018852 0.45096541980897 
H3    H     0.09786657012182 0.64361399012495 0.38621668017431 
H4    H     0.81676521028726 0.69375593009969 0.47798790022048 
H5    H     0.38545309996129 0.65407388984154 0.27020452999363 
H6    H     0.62274832044848 0.78973457000812 0.51440779995498 
H7    H     0.62366912023671 0.72433678990778 0.16858766981640 
H8    H     0.56711919987811 0.90703455024405 0.48599845994875 
H9    H     0.74633703956214 0.83185879976674 0.11946268013608 
H10   H     0.66063758984936 0.01040193985727 0.39654078968954 
H11   H     0.73096810032558 0.95361092003568 0.12939765035350 
H12   H     0.87656266029689 0.07176320998023 0.26587916988472 
H13   H     0.58482987056895 0.05221465977147 0.20753608977937 
H14   H     0.12632676975636 0.07183244999303 0.12208874986220 
H15   H     0.88386639962217 0.79332178993720 0.22221007018435 
H16   H     0.35262502984296 0.10562996003986 0.34092895977266 
H17   H     0.35783789981582 0.01143096022949 0.99948327032381 
H18   H     0.49642572977382 0.91038418004006 0.93101572016899 
H19   H     0.50252574001741 0.78818611013772 0.92189268996318 
H20   H     0.87101945966064 0.67471456004483 0.19528364993995 
H21   H     0.35742878988246 0.68383821978600 0.96904577993528 
H22   H     0.11101901004005 0.61772833985558 0.07126294977033 
