data_stdin
_audit_creation_method 'critic2'
_audit_creation_date 2023-8-11
_chemical_formula_sum 'C38 H22'
_cell_formula_units_Z 2
_cell_length_a        20.1038082221
_cell_length_b         7.7490006941
_cell_length_c         8.8760140275
_cell_angle_alpha       104.0007
_cell_angle_beta        81.6965
_cell_angle_gamma        67.9442
_cell_volume          1200.175767
_space_group_crystal_system triclinic
_space_group_IT_number 2
_space_group_name_H-M_alt 'P-1'
_space_group_name_Hall '-P 1'
loop_
_symmetry_equiv_pos_site_id
_symmetry_equiv_pos_as_xyz
 1 'x,y,z'
 2 '-x,-y,-z'
loop_
_atom_site_label
_atom_site_type_symbol
_atom_site_fract_x
_atom_site_fract_y
_atom_site_fract_z
C1    C     0.19400150475506 0.91771283133807 0.95530942738330 
C2    C     0.18874550564184 0.10667650810022 0.04641894073825 
C3    C     0.26036648338787 0.75882366229341 0.84121668835812 
C4    C     0.23761649929957 0.19275694265328 0.99895071211777 
C5    C     0.33563647619567 0.72510048512713 0.84846512774614 
C6    C     0.27993049357748 0.14077253989434 0.83566810095519 
C7    C     0.35288880716549 0.81364951360607 0.98750897538789 
C8    C     0.25900762773426 0.06796690593139 0.69277990534303 
C9    C     0.12838372127309 0.88596040446409 0.97961294914235 
C10   C     0.13095911232979 0.21816393965536 0.19149318333821 
C11   C     0.25158581878724 0.61593609354271 0.72120421062925 
C12   C     0.24674883317806 0.33175529120628 0.12230947974120 
C13   C     0.39651694368375 0.58325911203972 0.71526647207353 
C14   C     0.34779285137056 0.16179217921803 0.81545969028173 
C15   C     0.18303439125705 0.10891017376757 0.68568687434500 
C16   C     0.42536987266067 0.77676270948496 0.99126953658030 
C17   C     0.31590389850527 0.96143164245055 0.54626105232122 
C18   C     0.06668981099785 0.01539136693137 0.11403455717079 
C19   C     0.06985228461969 0.16964930145459 0.22201683800592 
C20   C     0.12408931734917 0.72624978646581 0.86829148729689 
C21   C     0.13498567060185 0.37698688886153 0.30512762049501 
C22   C     0.18195856463341 0.60481486609415 0.73594703602769 
C23   C     0.19411890634853 0.42230383794594 0.27623943761422 
C24   C     0.31339629834924 0.47665334327764 0.58969720848648 
C25   C     0.30909616590340 0.37586427324082 0.09160019515915 
C26   C     0.38297903583034 0.46711247061550 0.58249847337051 
C27   C     0.36102183044452 0.28108310789927 0.94615129221772 
C28   C     0.17008423331102 0.00538088985159 0.54441177508588 
C29   C     0.47013247922395 0.55115552645076 0.72077545450099 
C30   C     0.40190722029061 0.06368219535811 0.66441918609276 
C31   C     0.11982129673093 0.26039444976727 0.80563717012387 
C32   C     0.48470576267133 0.64770819353488 0.85534313939681 
C33   C     0.38801751857894 0.95608579765486 0.53678227496185 
C34   C     0.30057244730292 0.86469627296744 0.40609655444031 
C35   C     0.23073325290310 0.87960292665944 0.40650628648953 
C36   C     0.04837699247958 0.29738390099867 0.79261705767153 
C37   C     0.09654341236304 0.03836175904897 0.53802908596717 
C38   C     0.03626068000733 0.18153355390076 0.66021876659080 
H1    H     0.30817685879662 0.91118238889909 0.09452415920781 
H2    H     0.43639578380146 0.84844151659648 0.10021095361258 
H3    H     0.01808852897610 0.98469772687509 0.13241751878175 
H4    H     0.02487821588496 0.26095075022264 0.33069815624713 
H5    H     0.07291563839608 0.70724617164038 0.88806492844255 
H6    H     0.09194176336344 0.45398569166994 0.41851603281103 
H7    H     0.17753708583681 0.48885051343384 0.64598691881718 
H8    H     0.20070849788421 0.53232125916384 0.36790839915885 
H9    H     0.30395108089916 0.37461312046267 0.49651826818755 
H10   H     0.31616889369331 0.47898598095886 0.18847816202253 
H11   H     0.42984078980334 0.36145923151431 0.48112648810000 
H12   H     0.41155871300845 0.30294835503753 0.92482098523701 
H13   H     0.51550119281698 0.44579511227159 0.61668898861744 
H14   H     0.45476484427163 0.07440258793467 0.65402843760188 
H15   H     0.12786123037754 0.35330809466316 0.90756405077502 
H16   H     0.54167528388849 0.62105294982576 0.85730438240025 
H17   H     0.43021385273539 0.87424307202868 0.42254271523943 
H18   H     0.34633325633899 0.77861126039393 0.29795348140861 
H19   H     0.21924023028407 0.80617817302277 0.29897022443937 
H20   H     0.00091103101872 0.41833653591336 0.88405525506504 
H21   H     0.08867987285227 0.95364277285878 0.43057568665755 
H22   H     0.97975282831464 0.20984687662109 0.65273406860867 
