data_stdin
_audit_creation_method 'critic2'
_audit_creation_date 2023-8-11
_chemical_formula_sum 'C38 H22'
_cell_formula_units_Z 4
_cell_length_a         9.7944081076
_cell_length_b        28.7233977095
_cell_length_c         9.6838367265
_cell_angle_alpha        89.9997
_cell_angle_beta        63.8587
_cell_angle_gamma        90.0046
_cell_volume          2445.667717
_space_group_crystal_system monoclinic
_space_group_IT_number 9
_space_group_name_H-M_alt 'Cc'
_space_group_name_Hall 'C -2yc'
loop_
_symmetry_equiv_pos_site_id
_symmetry_equiv_pos_as_xyz
 1 'x,y,z'
 2 'x,-1/2-y,-1/2+z'
 3 '-1/2+x,-1/2+y,-1/2+z'
 4 '-1/2+x,-y,z'
loop_
_atom_site_label
_atom_site_type_symbol
_atom_site_fract_x
_atom_site_fract_y
_atom_site_fract_z
C1    C     0.93480310378391 0.11329482737733 0.05637373325602 
C2    C     0.98890805901029 0.15173715706095 0.94917197034053 
C3    C     0.85626061482126 0.07260402513231 0.03963249700219 
C4    C     0.92137483578041 0.16587164474188 0.84964062867138 
C5    C     0.87463176835719 0.05373293389501 0.89306863176864 
C6    C     0.76948084855617 0.15319069340133 0.87379242784136 
C7    C     0.99099221762967 0.06776782001912 0.74872697934790 
C8    C     0.64456573109252 0.14261328586205 0.02110155721282 
C9    C     0.96535781344324 0.11528534372903 0.18730118361783 
C10   C     0.11717960321470 0.17714634210133 0.94135500538006 
C11   C     0.76738268297364 0.04636984486349 0.17446373607855 
C12   C     0.01431318571500 0.19122582513972 0.71397769271134 
C13   C     0.77967391327594 0.01595363901805 0.89227624163089 
C14   C     0.74303814298013 0.14949880691160 0.74074110155508 
C15   C     0.62593202004842 0.16256907886074 0.16602172558330 
C16   C     0.00735549428691 0.04775315129133 0.61233134039655 
C17   C     0.52690463109112 0.11327315298858 0.02284528083796 
C18   C     0.08182482612745 0.14523034141244 0.18610490704911 
C19   C     0.16468026457229 0.17204397977891 0.05998988453556 
C20   C     0.88233926421110 0.08633594965282 0.31681332524565 
C21   C     0.19698544916484 0.20748714330442 0.81446210020620 
C22   C     0.77742707609008 0.05537766602220 0.31433740125451 
C23   C     0.15229443581309 0.21182828721130 0.69963820793325 
C24   C     0.67301698965890 0.00932053015216 0.16874351213189 
C25   C     0.97107782938476 0.19448968992317 0.59170715857923 
C26   C     0.67395931267159 0.99575706638567 0.03349436897392 
C27   C     0.84544185309717 0.17118605322242 0.60078569404163 
C28   C     0.51092937749160 0.14419496598951 0.30671062219173 
C29   C     0.79596494089831 0.99692272483201 0.75119298907462 
C30   C     0.61577481777048 0.12358345636072 0.74836760722478 
C31   C     0.70733441484490 0.20217243223230 0.17613212301868 
C32   C     0.90714521194817 0.01257756837058 0.61263298470320 
C33   C     0.51799741204104 0.10285485878994 0.88309288925848 
C34   C     0.41527460450294 0.09506705045275 0.16522305330783 
C35   C     0.41169174452740 0.10849013394402 0.30198676421113 
C36   C     0.68288934934281 0.22106822008999 0.31656168445708 
C37   C     0.49126436369314 0.16324525019409 0.44899215990469 
C38   C     0.57588742322329 0.20104596300142 0.45469894905571 
H1    H     0.07109645722325 0.09447480768324 0.74459380415924 
H2    H     0.09893537559823 0.05941478769935 0.50404635156623 
H3    H     0.10911855428871 0.14429520191465 0.28355739526554 
H4    H     0.26470099609222 0.19091017745287 0.05091754900176 
H5    H     0.90163879855943 0.09005497688292 0.41870236538389 
H6    H     0.29812297547972 0.22535728713524 0.80737688106019 
H7    H     0.70740686640384 0.03508708375078 0.41627117546409 
H8    H     0.22042302404432 0.23147847529685 0.59592450750165 
H9    H     0.59967619750323 0.99171214071400 0.27538033341033 
H10   H     0.04314413964843 0.21409936777948 0.48886526356232 
H11   H     0.59986952788149 0.96795755275819 0.03058930670888 
H12   H     0.81835525804822 0.17036676060789 0.50318880893502 
H13   H     0.71871089204585 0.96926919579446 0.75454913276330 
H14   H     0.60213287275872 0.11916628069051 0.64344906702797 
H15   H     0.78902560653801 0.21882322913355 0.07163178836127 
H16   H     0.91776694244436 0.99733644283526 0.50539321544704 
H17   H     0.42746344290240 0.07999308065198 0.88735181251463 
H18   H     0.33381707598165 0.06998365311703 0.16094808398357 
H19   H     0.32850345934272 0.09393558952122 0.41053263815958 
H20   H     0.74625344372978 0.25182295735828 0.31964100455165 
H21   H     0.40409844059925 0.14841935099219 0.55465530932395 
H22   H     0.55871637487240 0.21581827949557 0.56481455531746 
