data_stdin
_audit_creation_method 'critic2'
_audit_creation_date 2023-8-11
_chemical_formula_sum 'C38 H22'
_cell_formula_units_Z 2
_cell_length_a        10.1387478361
_cell_length_b        11.8418018914
_cell_length_c        10.5658259347
_cell_angle_alpha        91.3708
_cell_angle_beta        68.8718
_cell_angle_gamma        82.1803
_cell_volume          1168.604929
_space_group_crystal_system triclinic
_space_group_IT_number 2
_space_group_name_H-M_alt 'P-1'
_space_group_name_Hall '-P 1'
loop_
_symmetry_equiv_pos_site_id
_symmetry_equiv_pos_as_xyz
 1 'x,y,z'
 2 '-x,-y,-z'
loop_
_atom_site_label
_atom_site_type_symbol
_atom_site_fract_x
_atom_site_fract_y
_atom_site_fract_z
C1    C     0.63955272359259 0.86501858079707 0.85319043988442 
C2    C     0.74040350392613 0.93364579514568 0.76904496938664 
C3    C     0.67183291736091 0.77653365291929 0.93438452668730 
C4    C     0.89395236358102 0.89843285717046 0.70832421647959 
C5    C     0.79071732934290 0.76787699099999 0.98140033834463 
C6    C     0.96460036067680 0.78076561061557 0.67919633596858 
C7    C     0.86479398611663 0.85997080314223 0.98666554195030 
C8    C     0.89961244420546 0.68400189173032 0.65837702103077 
C9    C     0.49649456710247 0.88790047345857 0.85604173009110 
C10   C     0.68470507289661 0.04358172736607 0.74170383839352 
C11   C     0.57502233018508 0.69659572275950 0.98087164868234 
C12   C     0.98108302619461 0.98648649588082 0.67904575599647 
C13   C     0.82943497259981 0.66481536815798 0.03623039010444 
C14   C     0.10883164386384 0.75894050957393 0.67330568452790 
C15   C     0.78202780371606 0.69002339410181 0.60977647966137 
C16   C     0.97871233944945 0.84780423626524 0.03040347560532 
C17   C     0.96163437564616 0.57312766402334 0.67570519017947 
C18   C     0.44920189903691 0.98972681504826 0.80556109390136 
C19   C     0.53717275063842 0.06995887768871 0.76156821615117 
C20   C     0.39916795799084 0.81013992952538 0.91155521951870 
C21   C     0.77750733087548 0.12610011925062 0.69259763828652 
C22   C     0.44002436435086 0.71409815941956 0.96569897143360 
C23   C     0.91936131073740 0.10088156440628 0.67283337113742 
C24   C     0.61086631729258 0.59909618151410 0.04599204317113 
C25   C     0.12898664144734 0.96008993844051 0.65804360665656 
C26   C     0.73821959431493 0.57939729606441 0.06447215188885 
C27   C     0.18820048460435 0.85071222493323 0.66509188328969 
C28   C     0.70855805730176 0.59387203020959 0.61886541522795 
C29   C     0.95219080229771 0.65195092190703 0.07193247720717 
C30   C     0.17379952840423 0.64522464612812 0.67610281947327 
C31   C     0.74412538630649 0.78301081623537 0.54139930558638 
C32   C     0.02704795743792 0.74151613636123 0.06810124495661 
C33   C     0.09952246886799 0.55590171334961 0.68458844467387 
C34   C     0.88746677102236 0.47789321969435 0.68104102758042 
C35   C     0.76001402869508 0.48967060784227 0.66274078267205 
C36   C     0.63628775827960 0.78400660193153 0.49020962558262 
C37   C     0.59379728276321 0.59914954754705 0.57187664890830 
C38   C     0.55815209675559 0.69212893761376 0.50764241485834 
H1    H     0.82909032015558 0.94256088224930 0.95787787841153 
H2    H     0.03101491655679 0.92088145040124 0.03665623446061 
H3    H     0.33882286614430 0.00564192575303 0.81139358790017 
H4    H     0.49703126076406 0.15366476428137 0.73780681201697 
H5    H     0.29238390833282 0.82785278925669 0.90789500683783 
H6    H     0.73188952715379 0.21047278299244 0.67571876250319 
H7    H     0.36773430567420 0.65201822385955 0.00362300672385 
H8    H     0.98873206914689 0.16601822356940 0.64606906489765 
H9    H     0.53413613596788 0.53975994917452 0.07948213362906 
H10   H     0.19195153782591 0.02955057623565 0.64261824559916 
H11   H     0.76827480690190 0.50207024054046 0.10793641549868 
H12   H     0.29843100473289 0.83125806690479 0.65935126011329 
H13   H     0.98440787986975 0.57030491398615 0.10564690429695 
H14   H     0.28276926557377 0.63154287797947 0.67469344731160 
H15   H     0.80255589525053 0.85480511204741 0.52749839284225 
H16   H     0.11963003115564 0.73174855697274 0.09830320234979 
H17   H     0.14812666201965 0.46924419945475 0.68992433318495 
H18   H     0.93596259603343 0.39531932804520 0.69985425536382 
H19   H     0.70207910687832 0.41756617019524 0.66992164548330 
H20   H     0.61129867929013 0.85641311631260 0.43670210605182 
H21   H     0.53751162924571 0.52566915616176 0.58321556520666 
H22   H     0.47217847646689 0.69376298799075 0.46848791752240 
