data_stdin
_audit_creation_method 'critic2'
_audit_creation_date 2023-8-11
_chemical_formula_sum 'C38 H22'
_cell_formula_units_Z 4
_cell_length_a        10.3033239127
_cell_length_b        28.7618198202
_cell_length_c         9.7791156789
_cell_angle_alpha        89.9981
_cell_angle_beta        57.5635
_cell_angle_gamma        90.0010
_cell_volume          2445.844800
_space_group_crystal_system monoclinic
_space_group_IT_number 9
_space_group_name_H-M_alt 'Cc'
_space_group_name_Hall 'C -2yc'
loop_
_symmetry_equiv_pos_site_id
_symmetry_equiv_pos_as_xyz
 1 'x,y,z'
 2 'x,-y,-1/2+z'
 3 '-1/2+x,-1/2+y,z'
 4 '-1/2+x,-1/2-y,-1/2+z'
loop_
_atom_site_label
_atom_site_type_symbol
_atom_site_fract_x
_atom_site_fract_y
_atom_site_fract_z
C1    C     0.97421107328661 0.11329027327298 0.99163485078143 
C2    C     0.08140115554485 0.15168800012668 0.93838259530123 
C3    C     0.99075292835393 0.07268161659867 0.89620070447555 
C4    C     0.18100765738260 0.16577937529358 0.77104626990251 
C5    C     0.13719521667856 0.05387587406743 0.76760818716320 
C6    C     0.15688008027113 0.15314122570572 0.64309411488238 
C7    C     0.28143881469995 0.06784086702959 0.73975687347472 
C8    C     0.00953723882994 0.14263593603427 0.66564737353945 
C9    C     0.84349777427285 0.11523570377776 0.15342526659402 
C10   C     0.08919128234362 0.17710275712850 0.05893037753090 
C11   C     0.85599980680322 0.04645115227705 0.94234408446162 
C12   C     0.31665611645597 0.19107477845439 0.72826941303901 
C13   C     0.13793051889515 0.01623818391087 0.67145366465330 
C14   C     0.28983198381752 0.14942651692819 0.48337229047477 
C15   C     0.86483773070171 0.16264850786159 0.79213770549232 
C16   C     0.41777418190477 0.04785476215371 0.61952311716821 
C17   C     0.00752807333545 0.11334437242193 0.54972247635016 
C18   C     0.84465816833713 0.14519402254911 0.26876936515352 
C19   C     0.97061728170176 0.17203665265519 0.22532523911683 
C20   C     0.71414490798771 0.08624429339158 0.20022888675332 
C21   C     0.21593532069460 0.20744988104378 0.01179273205116 
C22   C     0.71638830814204 0.05533387841400 0.09278453923438 
C23   C     0.33081325038982 0.21175427341023 0.85209339039123 
C24   C     0.86159787371995 0.00955406558934 0.84182763203344 
C25   C     0.43902910388890 0.19421841277517 0.56256596183964 
C26   C     0.99667682432532 0.99612597074135 0.70695081286502 
C27   C     0.42992036100323 0.17094966108314 0.44582016121353 
C28   C     0.72403172525719 0.14436762019727 0.81810996057801 
C29   C     0.27893677084069 0.99723139815033 0.54646665271306 
C30   C     0.28189441681566 0.12363603749107 0.36356416641599 
C31   C     0.85512933341456 0.20224764704531 0.88339498024236 
C32   C     0.41745985104686 0.01278792459490 0.51930661201277 
C33   C     0.14710883061899 0.10297771229889 0.40067098222119 
C34   C     0.86503875589848 0.09515645962271 0.58095224973010 
C35   C     0.72847055601395 0.10862060116633 0.71440784055851 
C36   C     0.71491960721179 0.22127657065401 0.99922110104397 
C37   C     0.58195908167825 0.16358212847373 0.94048949350308 
C38   C     0.57662542396284 0.20141908105282 0.03041798172929 
H1    H     0.28562701777130 0.09444124402228 0.81601181136769 
H2    H     0.52592588313953 0.05949135728098 0.60309147441865 
H3    H     0.74732811482909 0.14426096945294 0.39372311326100 
H4    H     0.97967126102839 0.19096073614436 0.31629677133872 
H5    H     0.61247932345769 0.08988359960082 0.32173821951749 
H6    H     0.22289220995395 0.22534848662309 0.10598052077886 
H7    H     0.61451785752525 0.03500413895366 0.12503876106570 
H8    H     0.43439288815344 0.23143795630520 0.81646074131942 
H9    H     0.75495563729045 0.99198196393725 0.87521218965245 
H10   H     0.54198180260217 0.21371774048587 0.53181060850549 
H11   H     0.99941765014822 0.96851095242094 0.62948044937268 
H12   H     0.52760672361349 0.17004011235698 0.32104770772478 
H13   H     0.27556532288487 0.96965504879592 0.47233802262399 
H14   H     0.38665542807052 0.11925704395105 0.24472201016577 
H15   H     0.95976735486024 0.21879442388528 0.86041854213950 
H16   H     0.52477911845185 0.99755707489246 0.42279874262142 
H17   H     0.14269891117847 0.08021856753468 0.31419855764911 
H18   H     0.86897155202501 0.07006001205401 0.49537883732377 
H19   H     0.61990848956493 0.09405168908050 0.74004525157935 
H20   H     0.71218166709445 0.25202903572529 0.06541387934434 
H21   H     0.47620583096257 0.14888033123705 0.95897114135552 
H22   H     0.46679426557039 0.21640294737019 0.12307837082474 
