data_stdin
_audit_creation_method 'critic2'
_audit_creation_date 2023-8-11
_chemical_formula_sum 'C38 H22'
_cell_formula_units_Z 4
_cell_length_a        10.1483041254
_cell_length_b        11.7681461003
_cell_length_c        21.4318597608
_cell_angle_alpha        90.0004
_cell_angle_beta        69.3104
_cell_angle_gamma        90.0001
_cell_volume          2394.467501
_space_group_crystal_system monoclinic
_space_group_IT_number 14
_space_group_name_H-M_alt 'P2_1/c'
_space_group_name_Hall '-P 2ybc'
loop_
_symmetry_equiv_pos_site_id
_symmetry_equiv_pos_as_xyz
 1 'x,y,z'
 2 '-x,-y,-z'
 3 '-x,-1/2+y,-1/2-z'
 4 'x,-1/2-y,-1/2+z'
loop_
_atom_site_label
_atom_site_type_symbol
_atom_site_fract_x
_atom_site_fract_y
_atom_site_fract_z
C1    C     0.34447482047746 0.91932105981610 0.08500646976186 
C2    C     0.21347701944236 0.97204551991752 0.12544678023041 
C3    C     0.35642220044635 0.82287418973028 0.04152237984421 
C4    C     0.07842000029506 0.91507482973646 0.14913708008589 
C5    C     0.25261128990405 0.79244290027149 0.01204883986238 
C6    C     0.06023101042033 0.79345617039024 0.15718853998484 
C7    C     0.14723151992223 0.86814725015043 0.00826925999045 
C8    C     0.16078677032251 0.71637000986979 0.16806272983367 
C9    C     0.47108037024428 0.96603256986773 0.08883014993321 
C10   C     0.21723018063536 0.08734808014675 0.14498168980940 
C11   C     0.48222275941578 0.75749710992137 0.02256559019371 
C12   C     0.95567656029428 0.98373129010801 0.16390972977040 
C13   C     0.26117452046282 0.68407267972363 0.98061463001543 
C14   C     0.93327879034732 0.74641986033031 0.15401564977395 
C15   C     0.25953714031817 0.74805275010222 0.20024825994194 
C16   C     0.04729531037321 0.83520943008670 0.98175996009584 
C17   C     0.15348432983855 0.59959006971022 0.15263876989425 
C18   C     0.46960949973418 0.07503604962760 0.11795143978528 
C19   C     0.34793330976645 0.13713906993904 0.14058109022864 
C20   C     0.59896512996594 0.90328073019474 0.06374517978663 
C21   C     0.08984642994397 0.15138769962891 0.16895650012582 
C22   C     0.60184448945976 0.79852970974717 0.03572905019423 
C23   C     0.96492178982340 0.10319703987580 0.17237084976481 
C24   C     0.49079193973753 0.65242585030551 0.98810410980003 
C25   C     0.82479857007880 0.93276095011774 0.16944493978173 
C26   C     0.38136587024198 0.61393010974359 0.97088534991973 
C27   C     0.81699190977044 0.81847657018957 0.15954527979166 
C28   C     0.36648325031165 0.66908125027301 0.20076078020320 
C29   C     0.15428907981882 0.65037490995139 0.95626932979615 
C30   C     0.92373700990322 0.62740571036503 0.14466444023553 
C31   C     0.24503614000436 0.84837782034387 0.23867516014101 
C32   C     0.04738284977642 0.72387587037718 0.95767692991822 
C33   C     0.03465578981753 0.55734000017790 0.13929584019897 
C34   C     0.26255554970874 0.52340663013578 0.15314879002082 
C35   C     0.36955550061617 0.55837190968123 0.17312620975856 
C36   C     0.33621758019256 0.87297178957725 0.27184694991502 
C37   C     0.46006149029339 0.69726291009837 0.23415142011384 
C38   C     0.44647980013499 0.79819651968871 0.26872720011791 
H1    H     0.14628320011650 0.95438842002672 0.02621530013416 
H2    H     0.96849450029179 0.89574080995852 0.97913173986422 
H3    H     0.56839911031633 0.11020285011795 0.11858510978657 
H4    H     0.34794492025990 0.22438234028979 0.15754442016628 
H5    H     0.69315302960538 0.93906775014327 0.06924176003227 
H6    H     0.09473337987155 0.24019042000005 0.18248381011809 
H7    H     0.69783050010015 0.74766510960044 0.01992078975726 
H8    H     0.86970451057098 0.15393928023247 0.18435710981805 
H9    H     0.58662634045858 0.60219398021642 0.97636490990114 
H10   H     0.73287547020950 0.98721417005754 0.17917761988295 
H11   H     0.38775714985150 0.53183593988080 0.94645084995391 
H12   H     0.72012265994984 0.78068563010779 0.15818430990870 
H13   H     0.15953360977549 0.56542390033884 0.93528043008141 
H14   H     0.82756849003953 0.59456015020458 0.13968024000778 
H15   H     0.15837226940670 0.90608317005532 0.24388518019144 
H16   H     0.96646712022299 0.69806607010457 0.93812006995243 
H17   H     0.03069839013502 0.46723441036065 0.12840054017202 
H18   H     0.25770820983310 0.43577793034685 0.13764662977710 
H19   H     0.45298638020687 0.49999618031644 0.17285970991661 
H20   H     0.32043657043252 0.95033722994025 0.30142724979745 
H21   H     0.53998838008033 0.63562653036120 0.23455578990796 
H22   H     0.51822639961167 0.81815417982020 0.29476665996574 
