data_stdin
_audit_creation_method 'critic2'
_audit_creation_date 2023-8-11
_chemical_formula_sum 'C38 H22'
_cell_formula_units_Z 2
_cell_length_a         7.7598141892
_cell_length_b         8.8697644019
_cell_length_c        18.6243411029
_cell_angle_alpha        75.1788
_cell_angle_beta        89.4706
_cell_angle_gamma        76.0048
_cell_volume          1200.543016
_space_group_crystal_system triclinic
_space_group_IT_number 2
_space_group_name_H-M_alt 'P-1'
_space_group_name_Hall '-P 1'
loop_
_symmetry_equiv_pos_site_id
_symmetry_equiv_pos_as_xyz
 1 'x,y,z'
 2 '-x,-y,-z'
loop_
_atom_site_label
_atom_site_type_symbol
_atom_site_fract_x
_atom_site_fract_y
_atom_site_fract_z
C1    C     0.11200802774095 0.54466996276781 0.80601854228577 
C2    C     0.29552019794798 0.45358879249975 0.81134633454079 
C3    C     0.01951828225292 0.65869590203143 0.73958737316697 
C4    C     0.43021448423526 0.50112454767623 0.76253105995711 
C5    C     0.06110693216476 0.65131999570524 0.66432961730622 
C6    C     0.42041968252938 0.66451695734520 0.72024068381507 
C7    C     0.16685474877361 0.51212096771934 0.64716976745659 
C8    C     0.32669269673189 0.80740404921626 0.74118912403384 
C9    C     0.01474469350298 0.52027525859179 0.87158523926481 
C10   C     0.34920723072274 0.30837597185521 0.86911821000073 
C11   C     0.86781583648148 0.77864066064145 0.74825807426131 
C12   C     0.57820121224188 0.37774900567657 0.75341586801269 
C13   C     0.98019199602121 0.78447073116577 0.60336300587033 
C14   C     0.50912746001841 0.68486235879996 0.65239603974727 
C15   C     0.29189645546923 0.81438890709700 0.81720268883486 
C16   C     0.20245217408287 0.50817911760680 0.57469965248002 
C17   C     0.27679328143588 0.95402163170661 0.68430078543705 
C18   C     0.08248694872877 0.38574169875547 0.93329412539229 
C19   C     0.23974245338295 0.27775452063612 0.93017417162964 
C20   C     0.85078304630844 0.63150611085414 0.87577527594825 
C21   C     0.51183830897122 0.19469978928095 0.86510066498086 
C22   C     0.78711027734593 0.76382982630736 0.81785140235332 
C23   C     0.61611128696443 0.22368572493506 0.80600941223878 
C24   C     0.79027611106293 0.91005318781180 0.68636151547278 
C25   C     0.68449052541562 0.40860206065124 0.69111568572154 
C26   C     0.85037962421740 0.91722576409542 0.61680164510542 
C27   C     0.64160591033649 0.55415832791022 0.63919977420825 
C28   C     0.17524021093755 0.95553817807264 0.83019841179843 
C29   C     0.02186557812635 0.77884017561226 0.52976286067759 
C30   C     0.46501593879278 0.83604491118543 0.59830387512020 
C31   C     0.38054061178674 0.69448045121750 0.88040178170267 
C32   C     0.13291750549166 0.64412552168583 0.51528886517914 
C33   C     0.34349511734309 0.96364617175469 0.61218673404862 
C34   C     0.16454246319482 0.09407071962400 0.69967436054587 
C35   C     0.10976951801827 0.09348208916809 0.76954146420140 
C36   C     0.34626957573391 0.70734233414571 0.95189969873693 
C37   C     0.13486116939474 0.96170191012651 0.90378382600658 
C38   C     0.21810140013980 0.83951228404595 0.96405975602083 
H1    H     0.21956016965909 0.40511624223749 0.69194606956020 
H2    H     0.28496645297825 0.39909792242288 0.56372020107321 
H3    H     0.00326127845983 0.36724197063307 0.98184655480682 
H4    H     0.28601898521967 0.16893765011587 0.97513031257094 
H5    H     0.78067991537818 0.61164498145567 0.92691091113497 
H6    H     0.54577540135712 0.08119518976322 0.90811667820594 
H7    H     0.66670521299189 0.85370769228904 0.82218570703989 
H8    H     0.73257108324761 0.13198276325009 0.79943124002670 
H9    H     0.67868668493539 0.00316043688421 0.69571883900540 
H10   H     0.79460528601855 0.31171449048495 0.68406886599444 
H11   H     0.79152520597014 0.01852991060896 0.56987105041263 
H12   H     0.71394069927523 0.57557881942401 0.58869833972749 
H13   H     0.96202806685664 0.88293808473829 0.48432750521500 
H14   H     0.52855627287572 0.84657899724152 0.54545958190140 
H15   H     0.48161423094588 0.59274489211614 0.87228844672329 
H16   H     0.16327103971760 0.64210529467703 0.45832255298961 
H17   H     0.30375685637946 0.07797667807631 0.56998283456706 
H18   H     0.12394424331474 0.20227415967240 0.65391971320979 
H19   H     0.02472462677921 0.20094461370393 0.78105483930063 
H20   H     0.42004605389783 0.61600666897039 0.99936599537355 
H21   H     0.04213195539288 0.06900653721976 0.91171528754243 
H22   H     0.18997662303042 0.84693872595522 0.02059092797278 
