data_stdin
_audit_creation_method 'critic2'
_audit_creation_date 2023-8-11
_chemical_formula_sum 'C38 H22'
_cell_formula_units_Z 4
_cell_length_a         7.5791939945
_cell_length_b        31.9517330521
_cell_length_c         9.8306566600
_cell_angle_alpha        89.9995
_cell_angle_beta        90.0000
_cell_angle_gamma        90.0020
_cell_volume          2380.674228
_space_group_crystal_system orthorhombic
_space_group_IT_number 19
_space_group_name_H-M_alt 'P2_12_12_1'
_space_group_name_Hall 'P 2ac 2ab'
loop_
_symmetry_equiv_pos_site_id
_symmetry_equiv_pos_as_xyz
 1 'x,y,z'
 2 '-x,-1/2+y,-1/2-z'
 3 '-1/2+x,-1/2-y,-z'
 4 '-1/2-x,-y,-1/2+z'
loop_
_atom_site_label
_atom_site_type_symbol
_atom_site_fract_x
_atom_site_fract_y
_atom_site_fract_z
C1    C     0.53085900193106 0.85797472147864 0.02848158861554 
C2    C     0.61819246997665 0.82034039596048 0.98217402149768 
C3    C     0.45026806762657 0.88893786215728 0.94123516255921 
C4    C     0.70246126522893 0.81541282498957 0.85067412765608 
C5    C     0.38135835157408 0.88015998170891 0.80653202302554 
C6    C     0.76747760407373 0.84964028888198 0.76823163097202 
C7    C     0.34892441133569 0.83914634325706 0.75811432635062 
C8    C     0.81885297371920 0.89034419111093 0.81904589068194 
C9    C     0.52169620239130 0.86465052499032 0.17182042970104 
C10   C     0.62278019529481 0.78555870477832 0.07256772626712 
C11   C     0.42320417296467 0.92978031840904 0.99475067858302 
C12   C     0.71630800348946 0.77399145671030 0.79793563945187 
C13   C     0.32846978645000 0.91418001867564 0.72121222037675 
C14   C     0.78070584504498 0.84278709669437 0.62516012013565 
C15   C     0.88519329992432 0.89811390357570 0.95504248021190 
C16   C     0.28262828625565 0.83190060210604 0.62930800902108 
C17   C     0.81588718987413 0.92467219471580 0.72702655447635 
C18   C     0.55193227409129 0.83070913917092 0.26274032312283 
C19   C     0.58876138185232 0.79161609698121 0.21347716685089 
C20   C     0.48178088573855 0.90518131899498 0.22342332223378 
C21   C     0.65740475794660 0.74473832007531 0.02073160931657 
C22   C     0.44600321058365 0.93741138897113 0.13630706829461 
C23   C     0.68947784714944 0.73891187308318 0.88537982968712 
C24   C     0.36641593558304 0.96286514727054 0.90756763082759 
C25   C     0.75625680092684 0.76776402493375 0.65786754018931 
C26   C     0.32801450387499 0.95573394137512 0.77399667807140 
C27   C     0.77658883272487 0.80126182056744 0.57259694707038 
C28   C     0.90171609375632 0.94031801779272 0.00204496067249 
C29   C     0.26712018188148 0.90600098263970 0.58795038879327 
C30   C     0.79664584730641 0.87746643768420 0.53510559319713 
C31   C     0.94799046828868 0.86597339897556 0.04159816680743 
C32   C     0.24614372002322 0.86556349200124 0.54137291087231 
C33   C     0.79954712686903 0.91740449699777 0.58475687274829 
C34   C     0.83696810392328 0.96639559310215 0.77634002125374 
C35   C     0.87045959558110 0.97411533849950 0.91039270964347 
C36   C     0.00730064922674 0.87452655193131 0.17155207431027 
C37   C     0.95782680195210 0.94814702542244 0.13693338786987 
C38   C     0.00749429187217 0.91580142613447 0.22161507006718 
H1    H     0.37457825655938 0.81271069309637 0.82431520408697 
H2    H     0.25739832119587 0.79989324626912 0.59653497757166 
H3    H     0.53595098565082 0.83616029988958 0.37138195974961 
H4    H     0.59558474553753 0.76461598040475 0.28092845169901 
H5    H     0.48366687937115 0.90988678621305 0.33319143595470 
H6    H     0.64945948541077 0.71829142762034 0.09023157202831 
H7    H     0.42354447092249 0.96890125084738 0.17489747505988 
H8    H     0.70550455482080 0.70758068963194 0.84376691648093 
H9    H     0.35374826835950 0.99414520201124 0.95075451376757 
H10   H     0.76446901622267 0.73580552613534 0.61974982046473 
H11   H     0.28684240256270 0.98123383661586 0.70774399573987 
H12   H     0.79549669404025 0.79678611147472 0.46370790671797 
H13   H     0.23113096317503 0.93252319918096 0.52392140225219 
H14   H     0.80196496226443 0.87163719581767 0.42608322287552 
H15   H     0.95117444828711 0.83396306647333 0.00485467401908 
H16   H     0.19676811635296 0.85975926238378 0.43918095259486 
H17   H     0.80220615269486 0.94412538908580 0.51589445072168 
H18   H     0.82525700116244 0.99210349913880 0.70416974840332 
H19   H     0.88461568100927 0.00607945442395 0.94754937043432 
H20   H     0.05438989039848 0.84896650194925 0.23518738085273 
H21   H     0.96443804842181 0.98042456883085 0.17212886745681 
H22   H     0.05122008523756 0.92222246249618 0.32498894815210 
