data_stdin
_audit_creation_method 'critic2'
_audit_creation_date 2023-8-11
_chemical_formula_sum 'C38 H22'
_cell_formula_units_Z 8
_cell_length_a        28.0329926217
_cell_length_b         9.7241616540
_cell_length_c        19.4095938715
_cell_angle_alpha        90.0012
_cell_angle_beta        68.2789
_cell_angle_gamma        89.9992
_cell_volume          4915.324552
_space_group_crystal_system monoclinic
_space_group_IT_number 15
_space_group_name_H-M_alt 'C2/c'
_space_group_name_Hall '-C 2yc'
loop_
_symmetry_equiv_pos_site_id
_symmetry_equiv_pos_as_xyz
 1 'x,y,z'
 2 '-x,-y,-z'
 3 '-x,y,-1/2-z'
 4 'x,-y,-1/2+z'
 5 '-1/2+x,-1/2+y,z'
 6 '-1/2-x,-1/2-y,-z'
 7 '-1/2-x,-1/2+y,-1/2-z'
 8 '-1/2+x,-1/2-y,-1/2+z'
loop_
_atom_site_label
_atom_site_type_symbol
_atom_site_fract_x
_atom_site_fract_y
_atom_site_fract_z
C1    C     0.08523137286329 0.21799361488469 0.20185160296976 
C2    C     0.07767885565067 0.29897845219002 0.14401858287354 
C3    C     0.09996402474885 0.27074719992723 0.26102487536855 
C4    C     0.10342709781037 0.42756200254532 0.11592497849696 
C5    C     0.09047554935423 0.41030456297428 0.28999983353926 
C6    C     0.15044230902525 0.47095468415367 0.12378827212897 
C7    C     0.05740131437130 0.50316139474865 0.27338655879057 
C8    C     0.18906527492946 0.37918186667948 0.13014300515458 
C9    C     0.07666022712464 0.07361547313189 0.20034212181180 
C10   C     0.04363642309288 0.24710368652005 0.11090580484658 
C11   C     0.12083796978353 0.17626924011944 0.29850868738763 
C12   C     0.07994930563776 0.51933438925102 0.08078114191349 
C13   C     0.11107821733595 0.45432315354470 0.34379030852131 
C14   C     0.15894181753210 0.61516700818751 0.12550038928455 
C15   C     0.19898803704926 0.24248070688604 0.09803153369502 
C16   C     0.04774665556673 0.63350486760887 0.30372244818229 
C17   C     0.22260240546508 0.43077124742563 0.16386569478056 
C18   C     0.04826995701357 0.02023794020103 0.15874149807547 
C19   C     0.02849649900828 0.10647796805192 0.12046067661743 
C20   C     0.09570882027926 0.98238420622138 0.24138577285616 
C21   C     0.02570254415718 0.33569788629992 0.06719993025233 
C22   C     0.12017211579941 0.03240110957311 0.28530787556934 
C23   C     0.04074859103359 0.47022305371096 0.05692731712511 
C24   C     0.14049956673468 0.22359997622094 0.35249901794770 
C25   C     0.09495257839185 0.66023059364231 0.07174131416678 
C26   C     0.13757571806622 0.35870655618519 0.37250275297584 
C27   C     0.13039848953251 0.70839995444408 0.09897967663346 
C28   C     0.23411406167903 0.15462811576404 0.11494300944906 
C29   C     0.10198786418799 0.58982257766314 0.37244398296918 
C30   C     0.19599121644451 0.66478154468431 0.15359329306244 
C31   C     0.17962384708706 0.19533493507816 0.04440540177431 
C32   C     0.07107160141856 0.67919666492581 0.35251582896021 
C33   C     0.22422643126351 0.57446494577211 0.17710240499990 
C34   C     0.25670249706981 0.33961120735235 0.18081046484427 
C35   C     0.26097420485877 0.20490165261816 0.15950515411775 
C36   C     0.19120355294241 0.06600344028366 0.01320220256662 
C37   C     0.24471200890745 0.02171143479647 0.08316736935101 
C38   C     0.22347129592187 0.97704875002228 0.03334010882161 
H1    H     0.03806375918283 0.47003501741629 0.23724981453374 
H2    H     0.02100702922532 0.70018059926817 0.29073341871103 
H3    H     0.04063864312150 0.91013370916636 0.16129764317329 
H4    H     0.00255576721184 0.06868658375168 0.09453951638589 
H5    H     0.09123551099660 0.87216534920733 0.23607311659608 
H6    H     0.99796879898613 0.29507764897856 0.04523242505806 
H7    H     0.13664226524735 0.96269226559222 0.31452823776230 
H8    H     0.02404184285833 0.54152410281259 0.02899308867609 
H9    H     0.15755165477631 0.14838554600945 0.37819433658922 
H10   H     0.07598740561270 0.72959930827230 0.04583589453406 
H11   H     0.15222296838128 0.39361504563868 0.41424171836485 
H12   H     0.13890206864395 0.81778663017269 0.09806225959414 
H13   H     0.11840309675772 0.62059185184579 0.41292662625618 
H14   H     0.20028014917649 0.77550613948001 0.15757425741464 
H15   H     0.15640714566543 0.26368541995215 0.02550920095326 
H16   H     0.06359897475466 0.78237798284556 0.37590929194100 
H17   H     0.25070545736471 0.61187639528861 0.20210386551595 
H18   H     0.27953801830733 0.38053556480703 0.21099637586854 
H19   H     0.28708086729705 0.13616295252668 0.17267352282313 
H20   H     0.17623746518763 0.03448275514434 0.97127737387992 
H21   H     0.27126572422850 0.95634970611172 0.09741006143057 
H22   H     0.23291503536629 0.87601221235095 0.00774972889275 
