data_stdin
_audit_creation_method 'critic2'
_audit_creation_date 2023-8-11
_chemical_formula_sum 'C38 H22'
_cell_formula_units_Z 4
_cell_length_a        10.2969830518
_cell_length_b        28.7223311310
_cell_length_c         9.6807026806
_cell_angle_alpha        89.9995
_cell_angle_beta        58.5979
_cell_angle_gamma        90.0097
_cell_volume          2443.746353
_space_group_crystal_system monoclinic
_space_group_IT_number 9
_space_group_name_H-M_alt 'Cc'
_space_group_name_Hall 'C -2yc'
loop_
_symmetry_equiv_pos_site_id
_symmetry_equiv_pos_as_xyz
 1 'x,y,z'
 2 '-1/2+x,-1/2-y,-1/2+z'
 3 '-1/2+x,-1/2+y,z'
 4 'x,-y,-1/2+z'
loop_
_atom_site_label
_atom_site_type_symbol
_atom_site_fract_x
_atom_site_fract_y
_atom_site_fract_z
C1    C     0.99795746280996 0.63670925106408 0.99813534556241 
C2    C     0.05210518728555 0.59827064937108 0.05122050067887 
C3    C     0.91937124669645 0.67739233386415 0.09345482593729 
C4    C     0.98457801777847 0.58412333043839 0.21830505008370 
C5    C     0.93776516047170 0.69626986645970 0.22167923773747 
C6    C     0.83263581531235 0.59679046012879 0.34608293657743 
C7    C     0.05415974241328 0.68224842070584 0.24970943052628 
C8    C     0.70766855419490 0.60735234259750 0.32367602132050 
C9    C     0.02850298997890 0.63472494997952 0.83661076385819 
C10   C     0.18040950057104 0.57286978211697 0.93072196226186 
C11   C     0.83043834530479 0.70361404254971 0.04748362865169 
C12   C     0.07754843044185 0.55876605331697 0.26103415070555 
C13   C     0.84277507946404 0.73404979087132 0.31742761219073 
C14   C     0.80620649043254 0.60048692816073 0.50561431830272 
C15   C     0.68901611041080 0.58738127561124 0.19737079589328 
C16   C     0.07051077615276 0.70227163459922 0.36979396611813 
C17   C     0.58999475275038 0.63670164800925 0.43957037786459 
C18   C     0.14501353811567 0.60479196461839 0.72128625914491 
C19   C     0.22791784575506 0.57798254431805 0.76454249254956 
C20   C     0.94545253343677 0.66366815932353 0.79009695938027 
C21   C     0.26023396701379 0.54251604865048 0.97779189310881 
C22   C     0.84048081896414 0.69461356969124 0.89751805048215 
C23   C     0.21555422865201 0.53816425827434 0.13734659673451 
C24   C     0.73603377205248 0.74065736807186 0.14758314290550 
C25   C     0.03430427996770 0.55548843851228 0.42658350536764 
C26   C     0.73700826939503 0.75423390554171 0.28190472400862 
C27   C     0.90864462163623 0.57879224366080 0.54317662929637 
C28   C     0.57400600230227 0.60575328558856 0.17160505354910 
C29   C     0.85907375521831 0.75309254809128 0.44224311411044 
C30   C     0.67891929635281 0.62640844880606 0.62524718377958 
C31   C     0.77041879641676 0.54777057921359 0.10591263422064 
C32   C     0.97026747406087 0.73744376649565 0.46969417242971 
C33   C     0.58110603299188 0.64713280537308 0.58825729701542 
C34   C     0.47837662133255 0.65491169413547 0.40872697587280 
C35   C     0.47478338640688 0.64147126800128 0.27551567466504 
C36   C     0.74598654610280 0.52886827620306 0.98987229727140 
C37   C     0.55438269276246 0.58670058827169 0.04891002056743 
C38   C     0.63902691080975 0.54889637226136 0.95860989256945 
H1    H     0.13430306409413 0.65554736615480 0.17372912579617 
H2    H     0.16212231991539 0.69061896389171 0.38653183172124 
H3    H     0.17228431809231 0.60572866432588 0.59651406648711 
H4    H     0.32797781202522 0.55912292741075 0.67358233749641 
H5    H     0.96479858929777 0.65995489585288 0.66885496620397 
H6    H     0.36137288566941 0.52464366953580 0.88368966889287 
H7    H     0.77043863412977 0.71490124237849 0.86558418766920 
H8    H     0.28370074477464 0.51850732385251 0.17293378042754 
H9    H     0.66265062829088 0.75825204762420 0.11426981377746 
H10   H     0.10638951411973 0.53586716593970 0.45734819674962 
H11   H     0.66291226806105 0.78203309367280 0.35889897975285 
H12   H     0.88155715440815 0.57960261340856 0.66789377705710 
H13   H     0.78183202311230 0.78075584839004 0.51609800124539 
H14   H     0.66530595516626 0.63083836177984 0.74382354519843 
H15   H     0.85209765016217 0.53112968042706 0.12881953378899 
H16   H     0.98090356583802 0.75268182960793 0.56634503821382 
H17   H     0.49057419891582 0.67000021551442 0.67453108613511 
H18   H     0.39700834863377 0.68002208449770 0.49438734181448 
H19   H     0.39160222526939 0.65603462624208 0.25010743237675 
H20   H     0.80932567946761 0.49810699525207 0.92346578355748 
H21   H     0.46725215241052 0.60153484439150 0.03031088149800 
H22   H     0.62192692601189 0.53411900067264 0.86557746325929 
