data_stdin
_audit_creation_method 'critic2'
_audit_creation_date 2023-8-11
_chemical_formula_sum 'C38 H22'
_cell_formula_units_Z 2
_cell_length_a         9.7197452378
_cell_length_b        18.5256008089
_cell_length_c         7.4243509782
_cell_angle_alpha        79.3079
_cell_angle_beta        68.9912
_cell_angle_gamma        96.2792
_cell_volume          1203.570996
_space_group_crystal_system triclinic
_space_group_IT_number 2
_space_group_name_H-M_alt 'P-1'
_space_group_name_Hall '-P 1'
loop_
_symmetry_equiv_pos_site_id
_symmetry_equiv_pos_as_xyz
 1 'x,y,z'
 2 '-x,-y,-z'
loop_
_atom_site_label
_atom_site_type_symbol
_atom_site_fract_x
_atom_site_fract_y
_atom_site_fract_z
C1    C     0.38546916215459 0.29450398827344 0.74832383100436 
C2    C     0.28358501764004 0.32207446881340 0.90422313718507 
C3    C     0.41091847534715 0.21857138046286 0.76602909052627 
C4    C     0.23899054813333 0.28960580747572 0.11439617921235 
C5    C     0.29935060025758 0.15344433606255 0.89737300054680 
C6    C     0.32060086006636 0.24192915364189 0.19743712673320 
C7    C     0.14538767586216 0.15561884947600 0.99397296865473 
C8    C     0.48060375123310 0.24467015662207 0.11001519653879 
C9    C     0.46783366822450 0.34673355082128 0.56202517664162 
C10   C     0.22637107191056 0.38644477799702 0.84802025207339 
C11   C     0.54929030212576 0.20646630801405 0.63437711048912 
C12   C     0.10226368809435 0.30310774924393 0.24736046002913 
C13   C     0.34216390126850 0.08187417544829 0.92144242240802 
C14   C     0.23598727891683 0.18812400490084 0.38044988056834 
C15   C     0.59011754437622 0.31181174585930 0.98663347527409 
C16   C     0.04289530984584 0.09287379187741 0.12276942562069 
C17   C     0.53549259533423 0.17973907533467 0.16643851720194 
C18   C     0.41700859672471 0.41410542387311 0.51454994550912 
C19   C     0.29276576556248 0.43060044183198 0.64856690504187 
C20   C     0.60008489390599 0.33105791478428 0.42489438353056 
C21   C     0.10378861076589 0.40646109895359 0.99239725897240 
C22   C     0.64540558901073 0.26498476437878 0.46794761787274 
C23   C     0.03721473571937 0.36302859244985 0.18263913577753 
C24   C     0.58835205915117 0.13432014726871 0.66173236761867 
C25   C     0.02999409880651 0.25558822569943 0.44233321372349 
C26   C     0.49040143117463 0.07459422167671 0.80449793917854 
C27   C     0.08969752334578 0.19629091860706 0.50044934868246 
C28   C     0.74496681082022 0.30698309555088 0.89614661609486 
C29   C     0.23536196371448 0.01851145095130 0.05599008228779 
C30   C     0.29764896757086 0.12630444251876 0.44082291534131 
C31   C     0.55523344413495 0.38447844919182 0.96851820058285 
C32   C     0.08879679270892 0.02401291978516 0.15887308844498 
C33   C     0.43910905802912 0.11938434313933 0.32718116251132 
C34   C     0.69040373875798 0.17683712030308 0.07266365422128 
C35   C     0.79120597146551 0.23744355350885 0.93780479609533 
C36   C     0.66368058666673 0.44769146347145 0.85745660504427 
C37   C     0.85321243225755 0.37219283701043 0.77660211804430 
C38   C     0.81359237023776 0.44166601577203 0.75546514815695 
H1    H     0.10698370231609 0.20779672933160 0.96600976445275 
H2    H     0.92592572383940 0.09690238387282 0.19658717454540 
H3    H     0.47787471530129 0.45172290644635 0.36827052516702 
H4    H     0.24885644939724 0.48006319301244 0.60776270862009 
H5    H     0.66430122863796 0.37285293190857 0.28627859435332 
H6    H     0.06024964013586 0.45502340972821 0.94494082566178 
H7    H     0.74904234579938 0.25371657373602 0.36672510511463 
H8    H     0.93622124482338 0.37440897077746 0.28969375453225 
H9    H     0.69860406533878 0.12795068173640 0.56419143090438 
H10   H     0.92276824652396 0.26508797134405 0.53907857141930 
H11   H     0.52160339971640 0.01987326580644 0.82479769627136 
H12   H     0.02903323035596 0.15604264330769 0.64299491037260 
H13   H     0.27104534886112 0.96486946706417 0.07586169667110 
H14   H     0.22991229135605 0.08453340190878 0.57794918806903 
H15   H     0.44126215616716 0.39080565624130 0.04882889314933 
H16   H     0.00827920837919 0.97516178261711 0.26330850717824 
H17   H     0.48468564134834 0.07068270875852 0.36824458611102 
H18   H     0.72709828084124 0.12507863723656 0.11460727252406 
H19   H     0.90951765534456 0.23497392136519 0.86852714150530 
H20   H     0.63375468563850 0.50275935892241 0.85055262311731 
H21   H     0.96982993111976 0.36659529457118 0.70721681521587 
H22   H     0.89771050194139 0.49191626521338 0.66744077954894 
