data_stdin
_audit_creation_method 'critic2'
_audit_creation_date 2023-8-11
_chemical_formula_sum 'C38 H22'
_cell_formula_units_Z 4
_cell_length_a        11.1255089492
_cell_length_b        10.9756587502
_cell_length_c        21.1995127225
_cell_angle_alpha        90.0003
_cell_angle_beta       109.2622
_cell_angle_gamma        89.9999
_cell_volume          2443.750670
_space_group_crystal_system monoclinic
_space_group_IT_number 14
_space_group_name_H-M_alt 'P2_1/c'
_space_group_name_Hall '-P 2ybc'
loop_
_symmetry_equiv_pos_site_id
_symmetry_equiv_pos_as_xyz
 1 'x,y,z'
 2 '-x,-y,-z'
 3 '-x,-1/2+y,-1/2-z'
 4 'x,-1/2-y,-1/2+z'
loop_
_atom_site_label
_atom_site_type_symbol
_atom_site_fract_x
_atom_site_fract_y
_atom_site_fract_z
C1    C     0.66946424246478 0.42543854911970 0.58146346490284 
C2    C     0.75438165317106 0.48209461061056 0.64097946382207 
C3    C     0.58255402657553 0.32759275633940 0.58111056396271 
C4    C     0.80265141316827 0.42264051447617 0.70533205275295 
C5    C     0.52829554802409 0.30652420639371 0.63374084216354 
C6    C     0.81157692595129 0.29213398097170 0.71484861234429 
C7    C     0.52976826977256 0.39469465804569 0.68284752238735 
C8    C     0.82430632018290 0.20557308507392 0.66618795532580 
C9    C     0.67262158190380 0.46906678180556 0.51869658822854 
C10   C     0.79697517079461 0.60283565188944 0.63581542259201 
C11   C     0.53954552131656 0.25288400179543 0.52328302321703 
C12   C     0.84204095171752 0.49806700051839 0.76309774320718 
C13   C     0.46004424281150 0.19591597789934 0.63367549582503 
C14   C     0.80835640220102 0.24619120220386 0.77718669315833 
C15   C     0.88038048772516 0.23341766066740 0.61496843640162 
C16   C     0.47862578436901 0.37072140562999 0.73280355669490 
C17   C     0.79075970638383 0.08231584814663 0.67247567338577 
C18   C     0.72992088125418 0.58367916036247 0.51517831964075 
C19   C     0.78150756848485 0.65239491857013 0.57156563802321 
C20   C     0.61846147263589 0.39765333660088 0.46004837690181 
C21   C     0.85520895264171 0.67192902056453 0.69509323711796 
C22   C     0.56220055507144 0.28822081584151 0.46350113476425 
C23   C     0.86647139105051 0.62407053468361 0.75637319728899 
C24   C     0.46885612156950 0.14481199852991 0.52412327350481 
C25   C     0.85525397734156 0.44709160194378 0.82688794718369 
C26   C     0.43598847959085 0.11381917739505 0.57865031130037 
C27   C     0.82825050659785 0.32665203840404 0.83240959942564 
C28   C     0.87212168966327 0.14540277522417 0.56389907240953 
C29   C     0.41040012778281 0.17253087789520 0.68598391294480 
C30   C     0.78672803446190 0.11991064607165 0.78429794992195 
C31   C     0.95562872249850 0.33851085072660 0.61669045466579 
C32   C     0.42162911879286 0.25724556141258 0.73577368727534 
C33   C     0.76982812420889 0.04189970930436 0.73179081229818 
C34   C     0.78248074299020 0.99736110756723 0.62023727596767 
C35   C     0.81662038917415 0.02901575218568 0.56627806678884 
C36   C     0.00876271717180 0.36137428812202 0.56740407601070 
C37   C     0.92598471101956 0.17162363897356 0.51358599828198 
C38   C     0.99088160087812 0.27909190410690 0.51412632596648 
H1    H     0.57044293348153 0.48388424028744 0.68075489526703 
H2    H     0.48073566883984 0.44129827580089 0.76921487344844 
H3    H     0.72585086215416 0.61821836981573 0.46633275749610 
H4    H     0.81563745364527 0.74445093806322 0.56848365597708 
H5    H     0.62525294647587 0.43101350468967 0.41294245318512 
H6    H     0.88701323503861 0.76440144460710 0.69059336938338 
H7    H     0.52689386563687 0.22995580417416 0.41959641091626 
H8    H     0.89936067200349 0.67964188956393 0.80125107449118 
H9    H     0.44167844742716 0.08693436050143 0.47997655945083 
H10   H     0.88241726431610 0.50741375422980 0.87016071384634 
H11   H     0.38502479100594 0.02925261916785 0.57948370098457 
H12   H     0.82677136995423 0.28869741678075 0.87960849018613 
H13   H     0.35967709047940 0.08736897570408 0.68529366186553 
H14   H     0.78058089844578 0.08745425054202 0.83172167819241 
H15   H     0.97439307141300 0.40165200360536 0.65823919041986 
H16   H     0.38215624117024 0.23779700461037 0.77538265923932 
H17   H     0.74718228173798 0.94636525058470 0.73600627662798 
H18   H     0.74763437117439 0.90608679083452 0.62461590666083 
H19   H     0.80824805185139 0.96423435203799 0.52607667977473 
H20   H     0.06549003502010 0.44330036243436 0.57006118431873 
H21   H     0.91760450566674 0.10335971271798 0.47503213503237 
H22   H     0.03087006641553 0.29910224758589 0.47487341783285 
