data_stdin
_audit_creation_method 'critic2'
_audit_creation_date 2023-8-11
_chemical_formula_sum 'C38 H22'
_cell_formula_units_Z 4
_cell_length_a         9.0758074546
_cell_length_b         9.8527775903
_cell_length_c        28.3117430059
_cell_angle_alpha        89.9997
_cell_angle_beta        72.0087
_cell_angle_gamma        89.9997
_cell_volume          2407.899769
_space_group_crystal_system monoclinic
_space_group_IT_number 14
_space_group_name_H-M_alt 'P2_1/c'
_space_group_name_Hall '-P 2ybc'
loop_
_symmetry_equiv_pos_site_id
_symmetry_equiv_pos_as_xyz
 1 'x,y,z'
 2 '-x,-y,-z'
 3 '-x,-1/2+y,-1/2-z'
 4 'x,-1/2-y,-1/2+z'
loop_
_atom_site_label
_atom_site_type_symbol
_atom_site_fract_x
_atom_site_fract_y
_atom_site_fract_z
C1    C     0.06901141902034 0.06379940411678 0.41690756296781 
C2    C     0.92768441729829 0.14202291947468 0.42731313964135 
C3    C     0.22431585200334 0.11847199032024 0.39924102343507 
C4    C     0.91459328201130 0.26917950846628 0.40339218849440 
C5    C     0.26620460663335 0.25649791854283 0.40789898281985 
C6    C     0.02145294382230 0.31395793185254 0.35661202249418 
C7    C     0.16745354681640 0.34440712069092 0.44342096525573 
C8    C     0.11278761951552 0.22578016379699 0.31762861277262 
C9    C     0.05243888932677 0.92094524985110 0.42474757726135 
C10   C     0.79147944812966 0.08870420108145 0.46237173780146 
C11   C     0.34694712362486 0.02821059666405 0.37515389178970 
C12   C     0.79177513489651 0.35811651026962 0.42864500280798 
C13   C     0.41920863882885 0.30461421899999 0.38280578325430 
C14   C     0.03895443602968 0.45690651079506 0.34895992100507 
C15   C     0.06841740797229 0.08884490662842 0.30854400960764 
C16   C     0.21200755653368 0.47468656914168 0.45100876159566 
C17   C     0.24899622170344 0.28080712971242 0.28329646568276 
C18   C     0.90841923820684 0.86606634762391 0.45432948978545 
C19   C     0.78600758003354 0.94953309030893 0.47630616096909 
C20   C     0.18014685291223 0.83332980550512 0.40327841662231 
C21   C     0.66001805265174 0.17423880014753 0.48212200929907 
C22   C     0.32041857278476 0.88559818919019 0.37633104818618 
C23   C     0.66403309673868 0.30710419522734 0.46783943748850 
C24   C     0.49887856161845 0.07938608905795 0.35123900081894 
C25   C     0.79992310243266 0.49800121419122 0.41535328092294 
C26   C     0.53260475204974 0.21369213585488 0.35325600389715 
C27   C     0.92620033850585 0.54727630326213 0.37919638852638 
C28   C     0.17665185386339 0.00581510695416 0.27258016050073 
C29   C     0.46013452837932 0.44007987810143 0.38965635101036 
C30   C     0.17033776323781 0.50923114050572 0.31163143445445 
C31   C     0.91810035956484 0.03472568984058 0.33064309088266 
C32   C     0.35804106244632 0.52491193764636 0.42284695340799 
C33   C     0.27779769710313 0.42297284243575 0.28218106303380 
C34   C     0.35454636560097 0.19477844379555 0.24810587177410 
C35   C     0.32234589612264 0.06079773224182 0.24399938382232 
C36   C     0.88048117230209 0.90403128734722 0.32078302765302 
C37   C     0.13573372992374 0.87168141260473 0.26377480209938 
C38   C     0.99047336661346 0.82022115836090 0.28767876756178 
H1    H     0.05498318732448 0.30745756539340 0.46577763613854 
H2    H     0.13431616358082 0.53850022207773 0.47929779835720 
H3    H     0.90015763366271 0.75716064526183 0.46101727290737 
H4    H     0.68135472864548 0.91001265394205 0.50318376255581 
H5    H     0.16280537480173 0.72419889445398 0.40782613561883 
H6    H     0.55907600185145 0.13244959467006 0.51007525518383 
H7    H     0.41658707411495 0.81871826067422 0.35779233045605 
H8    H     0.56787046119016 0.37535947742296 0.48480188307953 
H9    H     0.58820153424181 0.00835492369036 0.33121795977655 
H10   H     0.70777255669047 0.56553607605760 0.43630924095303 
H11   H     0.64881513103443 0.25200710558874 0.33497234843811 
H12   H     0.94004623085440 0.65567311200778 0.37164007025228 
H13   H     0.57652021784470 0.47468205571268 0.36938857761107 
H14   H     0.18493708219257 0.61883455394103 0.30810635608486 
H15   H     0.82940710574990 0.09725885453104 0.35563081886612 
H16   H     0.39077667955548 0.62855117409347 0.42838442561810 
H17   H     0.38251531155695 0.46228890810824 0.25529942998064 
H18   H     0.46227069832044 0.23904895705266 0.22450661550648 
H19   H     0.40423015284441 0.99566609486767 0.21738187483803 
H20   H     0.76417857983882 0.86544512073430 0.33879043575821 
H21   H     0.22116625402173 0.80994991437048 0.23688732945927 
H22   H     0.95990578834577 0.71753281579963 0.28007173039375 
