data_stdin
_audit_creation_method 'critic2'
_audit_creation_date 2023-8-11
_chemical_formula_sum 'C38 H22'
_cell_formula_units_Z 2
_cell_length_a         7.8641983650
_cell_length_b        10.5236474678
_cell_length_c        14.8721381564
_cell_angle_alpha        82.9537
_cell_angle_beta        88.7704
_cell_angle_gamma        76.7189
_cell_volume          1188.824350
_space_group_crystal_system triclinic
_space_group_IT_number 2
_space_group_name_H-M_alt 'P-1'
_space_group_name_Hall '-P 1'
loop_
_symmetry_equiv_pos_site_id
_symmetry_equiv_pos_as_xyz
 1 'x,y,z'
 2 '-x,-y,-z'
loop_
_atom_site_label
_atom_site_type_symbol
_atom_site_fract_x
_atom_site_fract_y
_atom_site_fract_z
C1    C     0.60190547119447 0.32519090736890 0.26537278072262 
C2    C     0.62872082847926 0.25666890189502 0.35630362801992 
C3    C     0.65324595198392 0.26700154075181 0.18280613751176 
C4    C     0.76388908896568 0.13953774763477 0.38195907515183 
C5    C     0.67014635696520 0.12906196646520 0.17274507980147 
C6    C     0.92294812334851 0.09979315502566 0.33168462439358 
C7    C     0.60111666287149 0.04192631011786 0.23557561605718 
C8    C     0.00791307365861 0.18794127712201 0.27484563963301 
C9    C     0.51907291601343 0.46183465031253 0.25687449123126 
C10   C     0.51809294429730 0.30977764548957 0.42628311185078 
C11   C     0.67635558944650 0.35226432074098 0.10384867693043 
C12   C     0.73677329028782 0.05632147049930 0.46131944509557 
C13   C     0.74675027447580 0.07917165687977 0.09219865930778 
C14   C     0.00254752527099 0.96273884275186 0.34006571324932 
C15   C     0.99070005654314 0.32552253987184 0.28569054908468 
C16   C     0.61998571537226 0.91106408681659 0.22394537105388 
C17   C     0.12615096448663 0.13495991620367 0.20793289764885 
C18   C     0.42742631575467 0.51742587481540 0.33143768213971 
C19   C     0.41579840943310 0.44100413950143 0.41144752335816 
C20   C     0.52896708229296 0.54301504905081 0.17401705882937 
C21   C     0.51324793875796 0.23234210963408 0.51164813416615 
C22   C     0.61723370835038 0.49102855145515 0.10193829777568 
C23   C     0.61003795975230 0.10584768955427 0.52589485319070 
C24   C     0.75265694158417 0.29910056489165 0.02460180709483 
C25   C     0.83639019162801 0.92424511483033 0.47589903218424 
C26   C     0.79372360001603 0.16691088556112 0.02006247552365 
C27   C     0.95605139328775 0.87666221736304 0.41316121426967 
C28   C     0.05227932387872 0.40913426201545 0.21543521960040 
C29   C     0.76678471848408 0.94443052909389 0.08241991859159 
C30   C     0.12983934310353 0.91323142659407 0.27597135186432 
C31   C     0.92756879789776 0.38066051584885 0.36562431310849 
C32   C     0.70683843886362 0.86050527100760 0.14769629037821 
C33   C     0.18073476146049 0.99626442845948 0.20808038181003 
C34   C     0.19522557429355 0.22010838347763 0.14217601762399 
C35   C     0.15146494090871 0.35314977553890 0.14273217995558 
C36   C     0.90715231997807 0.51342933458251 0.37167476961324 
C37   C     0.02213151899303 0.54553610507925 0.22152972697423 
C38   C     0.94680465475194 0.59801117554566 0.29741915556514 
H1    H     0.52815856357151 0.07971563847192 0.29310276954272 
H2    H     0.56495042807381 0.84711899656399 0.27374126952115 
H3    H     0.36184358285720 0.62118622554628 0.32249429031531 
H4    H     0.33670636213902 0.48134140487064 0.46664501893013 
H5    H     0.46922830454605 0.64781113024508 0.17010185363996 
H6    H     0.42527167584151 0.27438584400933 0.56339410470100 
H7    H     0.63340306406725 0.55406524667264 0.04010824112144 
H8    H     0.59729118012467 0.04225986393429 0.58792072215098 
H9    H     0.77633152982166 0.36752936034849 0.96723433426503 
H10   H     0.81087225949256 0.86152833183754 0.53607323161435 
H11   H     0.85507444696952 0.12715687661245 0.95997031756021 
H12   H     0.02555315555485 0.77369988458137 0.42083274928132 
H13   H     0.82867902896176 0.90837592294677 0.02134629431004 
H14   H     0.18262209683594 0.80743000703893 0.28108455209122 
H15   H     0.89538592431552 0.31699766231802 0.42342620679506 
H16   H     0.72331054795155 0.75689525467722 0.13981638021149 
H17   H     0.27289187211030 0.95837618806795 0.15676392624086 
H18   H     0.28469274151291 0.17610090031897 0.09169308862119 
H19   H     0.20048540714714 0.41786773956337 0.09091784302604 
H20   H     0.86059228378844 0.55275377922673 0.43440077351578 
H21   H     0.06243339763410 0.60884001147130 0.16549400493957 
H22   H     0.92158607866638 0.70337818308954 0.30037858670177 
