data_stdin
_audit_creation_method 'critic2'
_audit_creation_date 2023-8-11
_chemical_formula_sum 'C38 H22'
_cell_formula_units_Z 4
_cell_length_a         7.9730986438
_cell_length_b         9.8480649693
_cell_length_c        30.4056900656
_cell_angle_alpha        89.9993
_cell_angle_beta        88.4699
_cell_angle_gamma        89.9979
_cell_volume          2386.591113
_space_group_crystal_system monoclinic
_space_group_IT_number 14
_space_group_name_H-M_alt 'P2_1/c'
_space_group_name_Hall '-P 2ybc'
loop_
_symmetry_equiv_pos_site_id
_symmetry_equiv_pos_as_xyz
 1 'x,y,z'
 2 '-x,-y,-z'
 3 '-x,-1/2+y,-1/2-z'
 4 'x,-1/2-y,-1/2+z'
loop_
_atom_site_label
_atom_site_type_symbol
_atom_site_fract_x
_atom_site_fract_y
_atom_site_fract_z
C1    C     0.76295541040175 0.78199439000063 0.88182744989880 
C2    C     0.76184628970943 0.73295098033344 0.92667844007599 
C3    C     0.76303719956027 0.69705019021624 0.84299541990283 
C4    C     0.82977159953327 0.60353818950014 0.93991749992314 
C5    C     0.69823928045104 0.55921639987278 0.84174024002677 
C6    C     0.95451554936177 0.52769336998121 0.91478332010937 
C7    C     0.59430687054051 0.50245973981417 0.87548762996944 
C8    C     0.07636541052938 0.58512574046909 0.88376564991844 
C9    C     0.76550621955837 0.92563890033892 0.87583925984083 
C10   C     0.69551112047995 0.81952977964869 0.96043095998974 
C11   C     0.81962327029299 0.75552554032943 0.80244968004514 
C12   C     0.76541161948430 0.54603947010283 0.97988594984891 
C13   C     0.72704728954599 0.47882257992046 0.80303137988313 
C14   C     0.95730311009410 0.38427714045534 0.92137311008159 
C15   C     0.14361368000279 0.72211701996192 0.88623297001132 
C16   C     0.53539634965690 0.37083220039168 0.87305323011643 
C17   C     0.14740810018834 0.49728410996879 0.85110648991555 
C18   C     0.72313131019807 0.01322855958508 0.91170025011373 
C19   C     0.67663950977402 0.96079260954349 0.95187873986190 
C20   C     0.81067347021396 0.98146503025286 0.83400714001859 
C21   C     0.65242885021739 0.76412465976319 0.00260994004642 
C22   C     0.84670718051898 0.89809274001033 0.79907486014317 
C23   C     0.67467677007646 0.62882908956151 0.01065377991924 
C24   C     0.84524775981335 0.67249170033322 0.76434700984295 
C25   C     0.79105729047083 0.40612089949646 0.98896815994757 
C26   C     0.80624866981465 0.53761890038470 0.76496046998148 
C27   C     0.87473260964973 0.32601265974772 0.95894828990948 
C28   C     0.25313242022750 0.77081997968497 0.85155594995770 
C29   C     0.66813530000870 0.34332683975221 0.80167401016174 
C30   C     0.04168724972634 0.29908818990096 0.89012726983848 
C31   C     0.11954536984573 0.80785492953280 0.92332450989894 
C32   C     0.57492266043497 0.28903549997879 0.83628324014319 
C33   C     0.12286514025306 0.35426569991558 0.85424616000663 
C34   C     0.25468339005394 0.54976156959289 0.81684117001823 
C35   C     0.30201645990985 0.68277184978784 0.81628005994284 
C36   C     0.18895313978463 0.93631155993916 0.92501862011545 
C37   C     0.32116320024303 0.90340737983051 0.85376338992817 
C38   C     0.28833836981116 0.98607673990211 0.88960847994412 
H1    H     0.55541064973007 0.56522017044079 0.90325980015369 
H2    H     0.45347754967855 0.33136284010324 0.89921228999239 
H3    H     0.72128826039120 0.12229318950769 0.90581659990508 
H4    H     0.63283428980584 0.02677398964877 0.97856588000683 
H5    H     0.81985658991451 0.09136398047366 0.83081640984469 
H6    H     0.59600346956481 0.83055585014819 0.02754078996465 
H7    H     0.88874768013231 0.94004503044066 0.76753790016261 
H8    H     0.63068267968532 0.58249619975071 0.04132204002271 
H9    H     0.89825146054712 0.71980813949252 0.73471573008334 
H10   H     0.73707627990445 0.36376987952468 0.01923314006347 
H11   H     0.82736837999666 0.47472904021838 0.73585800986200 
H12   H     0.88563861061220 0.21690592985671 0.96401761998997 
H13   H     0.69603185947383 0.28332396019636 0.77228491006323 
H14   H     0.03699750992284 0.18952015958925 0.89485731986528 
H15   H     0.04657053055349 0.77151365973148 0.95150189013167 
H16   H     0.52850075941918 0.18524204992700 0.83455077004107 
H17   H     0.18212562975055 0.28946562999029 0.82932236013064 
H18   H     0.30468229032036 0.47941319984924 0.79214350002521 
H19   H     0.38890942997793 0.72091416039123 0.79093364999155 
H20   H     0.16673825003247 0.99879186963223 0.95417022995245 
H21   H     0.40468936005309 0.93719449997656 0.82696572990728 
H22   H     0.34216499982925 0.08747326962872 0.89109873985116 
