data_stdin
_audit_creation_method 'critic2'
_audit_creation_date 2023-8-11
_chemical_formula_sum 'C38 H22'
_cell_formula_units_Z 4
_cell_length_a         9.7645877928
_cell_length_b        17.6907918702
_cell_length_c        13.9526459956
_cell_angle_alpha        90.0000
_cell_angle_beta        82.5716
_cell_angle_gamma        90.0004
_cell_volume          2389.997631
_space_group_crystal_system monoclinic
_space_group_IT_number 14
_space_group_name_H-M_alt 'P2_1/c'
_space_group_name_Hall '-P 2ybc'
loop_
_symmetry_equiv_pos_site_id
_symmetry_equiv_pos_as_xyz
 1 'x,y,z'
 2 '-x,-y,-z'
 3 '-x,-1/2+y,-1/2-z'
 4 'x,-1/2-y,-1/2+z'
loop_
_atom_site_label
_atom_site_type_symbol
_atom_site_fract_x
_atom_site_fract_y
_atom_site_fract_z
C1    C     0.45680005461149 0.06895628437392 0.83681490511834 
C2    C     0.38228494999067 0.99905788001475 0.82999124193374 
C3    C     0.39793578137443 0.14336506847784 0.83150433917334 
C4    C     0.26387319849360 0.99123997414241 0.77837261782077 
C5    C     0.25342630655231 0.16089939389900 0.86073656808985 
C6    C     0.22983609208374 0.04328467413853 0.70493782961458 
C7    C     0.16289302472846 0.11188157988557 0.91887200916746 
C8    C     0.32804629463010 0.08851437413199 0.64287854994515 
C9    C     0.59886685287389 0.06363738988031 0.84920572865612 
C10   C     0.43103768190587 0.93377916746539 0.87458197025332 
C11   C     0.48858891673170 0.20451227413109 0.80358189404915 
C12   C     0.17251266829539 0.92965775331006 0.80404521691191 
C13   C     0.20140658308625 0.23347883554126 0.83788421622920 
C14   C     0.08730265473723 0.04992726721618 0.69339144476382 
C15   C     0.47129398171550 0.06751626461972 0.61344871314927 
C16   C     0.02659925958615 0.13103423034379 0.94772208763167 
C17   C     0.27723352570601 0.15379855059904 0.59943384553802 
C18   C     0.65150246120777 0.99461371869191 0.88248330360988 
C19   C     0.56656413489688 0.93351107403073 0.90228160122994 
C20   C     0.68646232272474 0.12744050081515 0.82819533079390 
C21   C     0.34544487648666 0.86835025377827 0.88781970138332 
C22   C     0.63410959268667 0.19426809618606 0.79922162365519 
C23   C     0.21721948719961 0.86803754328483 0.85819340388399 
C24   C     0.43337293743051 0.27632618459232 0.78212635928903 
C25   C     0.03619961328815 0.93126788448988 0.77789906645903 
C26   C     0.29438435306842 0.28901027155613 0.79299618444851 
C27   C     0.99202301551725 0.99281010300456 0.73086331984359 
C28   C     0.56137732398185 0.11972446922510 0.55778558960680 
C29   C     0.06074358386855 0.25131494340101 0.86670493677775 
C30   C     0.04041831319100 0.11349400192745 0.64406565011606 
C31   C     0.52404846325619 0.99420019232533 0.62658265078712 
C32   C     0.97414404724254 0.20091040049492 0.92035788195423 
C33   C     0.13244444070136 0.16671273542114 0.60456014473317 
C34   C     0.37013641180434 0.20455934182615 0.54455087348420 
C35   C     0.50795671159600 0.18931701645845 0.52698155789416 
C36   C     0.65883163611123 0.97493804212758 0.59274164174169 
C37   C     0.70005923245362 0.09936974745354 0.52600486848059 
C38   C     0.74911294162626 0.02820276554455 0.54356319732191 
H1    H     0.20200515505964 0.05854340301932 0.94263336268104 
H2    H     0.95988789403301 0.09224055599988 0.99276869799521 
H3    H     0.75913255455000 0.99274974326526 0.89538740639689 
H4    H     0.60289730701893 0.88263689491992 0.93499051864756 
H5    H     0.79636105804126 0.12125117457737 0.83267773524591 
H6    H     0.38397064286452 0.81912989636718 0.92265879780464 
H7    H     0.70183252206201 0.24181134452385 0.77700336502173 
H8    H     0.14830798996528 0.81981158611500 0.87308792350840 
H9    H     0.50519624382569 0.32097081832449 0.75618430071590 
H10   H     0.96629733749149 0.88486552796815 0.80133398323594 
H11   H     0.25384587919869 0.34336712354605 0.77317297942785 
H12   H     0.88479272157737 0.99795659728295 0.71776683643415 
H13   H     0.02302925058963 0.30682539685921 0.84851152631335 
H14   H     0.93018015129331 0.11917667970903 0.64021549443417 
H15   H     0.45561422534183 0.95071025074567 0.66009961831776 
H16   H     0.86654328749932 0.21553947294054 0.94323303019279 
H17   H     0.09744541590109 0.21715673316984 0.57004500920035 
H18   H     0.32728782157659 0.25472184126958 0.51429922552257 
H19   H     0.57734581799800 0.22737368840969 0.48258698241579 
H20   H     0.69325791495162 0.91710334827931 0.60089571500745 
H21   H     0.76625885854176 0.14025729784028 0.48374153182704 
H22   H     0.85467517201033 0.01234339414052 0.51615122786538 
