data_stdin
_audit_creation_method 'critic2'
_audit_creation_date 2023-8-11
_chemical_formula_sum 'C38 H22'
_cell_formula_units_Z 4
_cell_length_a         9.7503114777
_cell_length_b        17.3934855500
_cell_length_c        14.1810168646
_cell_angle_alpha        90.0000
_cell_angle_beta        87.4423
_cell_angle_gamma        90.0000
_cell_volume          2402.589691
_space_group_crystal_system monoclinic
_space_group_IT_number 14
_space_group_name_H-M_alt 'P2_1/c'
_space_group_name_Hall '-P 2ybc'
loop_
_symmetry_equiv_pos_site_id
_symmetry_equiv_pos_as_xyz
 1 'x,y,z'
 2 '-x,-y,-z'
 3 '-x,-1/2+y,-1/2-z'
 4 'x,-1/2-y,-1/2+z'
loop_
_atom_site_label
_atom_site_type_symbol
_atom_site_fract_x
_atom_site_fract_y
_atom_site_fract_z
C1    C     0.44045723272129 0.05737202254986 0.66742026452736 
C2    C     0.36901770730147 0.10326757340081 0.60018090020744 
C3    C     0.37559694014612 0.01427808134850 0.74422491508694 
C4    C     0.23887840119844 0.14084797062399 0.62047365494991 
C5    C     0.23713206911604 0.98337578169271 0.74377510701447 
C6    C     0.18384284718319 0.15687905933118 0.71477875300182 
C7    C     0.16061026911927 0.97898155216258 0.66129373239932 
C8    C     0.26471907419151 0.16719214206450 0.79691387865480 
C9    C     0.58615701664455 0.05354193432209 0.65558829675669 
C10   C     0.43206992028688 0.11255348002037 0.50852358070882 
C11   C     0.45664793158474 0.99438583172172 0.82148672731144 
C12   C     0.15785584337669 0.16041098429641 0.54286641691334 
C13   C     0.17781254750993 0.94904355870919 0.82786358900147 
C14   C     0.03832306115489 0.16175718723109 0.72761882027228 
C15   C     0.40306687317855 0.19823404980476 0.79396271444491 
C16   C     0.03119752710871 0.94647381760358 0.66221986534850 
C17   C     0.20040126032881 0.15280010672219 0.88711288882123 
C18   C     0.65117934185578 0.07415625130931 0.56717428655991 
C19   C     0.57448061498922 0.09622441485224 0.49337603778775 
C20   C     0.66517361884049 0.02791394834731 0.73154052980250 
C21   C     0.35268497844403 0.13933496744732 0.43319129719307 
C22   C     0.60182381082450 0.00446080702937 0.81469523558211 
C23   C     0.21775083943988 0.15860856244406 0.44927991640014 
C24   C     0.39285352448662 0.96218212747096 0.90501647109837 
C25   C     0.01642149546092 0.17917830111369 0.55916996850817 
C26   C     0.25692276414326 0.94325592930644 0.90983124646536 
C27   C     0.95645433493815 0.17391764285998 0.64814468896265 
C28   C     0.47968189222365 0.19692769872006 0.87774033700283 
C29   C     0.04452911409462 0.91689090125772 0.82725223839858 
C30   C     0.97593317819583 0.15339493404695 0.81982528741989 
C31   C     0.46137876582509 0.23802127834196 0.71473453748017 
C32   C     0.97127802662921 0.91574431579259 0.74624132352964 
C33   C     0.05532142019484 0.14312003301526 0.89592714729531 
C34   C     0.27989339625832 0.15201686939550 0.96928405540850 
C35   C     0.41604979057090 0.17026961195593 0.96416743082241 
C36   C     0.59023732909055 0.27113781469020 0.71627276588043 
C37   C     0.61340480499267 0.22874275310635 0.87640834207867 
C38   C     0.66860594305388 0.26544113920193 0.79707007806743 
H1    H     0.20545543487836 0.00042505984456 0.59506805921658 
H2    H     0.97593875655730 0.94404504265013 0.59723973475620 
H3    H     0.76222431706764 0.06798054754998 0.55854444466939 
H4    H     0.62136955782436 0.10531463513128 0.42320439033151 
H5    H     0.77668856934037 0.02881425359486 0.72270900073510 
H6    H     0.40113599113019 0.14264282066578 0.36263292511719 
H7    H     0.66165430027372 0.98878768618325 0.87492215594771 
H8    H     0.15525725087491 0.17667530825096 0.39158752953631 
H9    H     0.45604413001899 0.95216182450845 0.96508048449070 
H10   H     0.95593139827300 0.19344343494566 0.49874765944031 
H11   H     0.20922205250597 0.91983505894567 0.97463479078016 
H12   H     0.84607867394175 0.18116847327680 0.66021486856193 
H13   H     0.00179108643856 0.89072919492314 0.89180486018256 
H14   H     0.86430812513435 0.15283468065271 0.82755072344006 
H15   H     0.40202757276151 0.24436987395721 0.65220473291557 
H16   H     0.86929535429151 0.89017375106991 0.74698605843696 
H17   H     0.00830683045423 0.13213558277891 0.96564461336426 
H18   H     0.22852295902196 0.13799455687504 0.03693635500196 
H19   H     0.47576917067077 0.17022475699153 0.02717335805559 
H20   H     0.63087014764841 0.30327399950252 0.65536996766930 
H21   H     0.66939351168980 0.22709604309451 0.94127588366285 
H22   H     0.76982981830775 0.29196713929926 0.79746429782606 
