data_stdin
_audit_creation_method 'critic2'
_audit_creation_date 2023-8-11
_chemical_formula_sum 'C38 H22'
_cell_formula_units_Z 2
_cell_length_a         9.3146683026
_cell_length_b        10.5996133332
_cell_length_c        13.1108012966
_cell_angle_alpha        80.3384
_cell_angle_beta        85.4697
_cell_angle_gamma       109.3803
_cell_volume          1191.095157
_space_group_crystal_system triclinic
_space_group_IT_number 2
_space_group_name_H-M_alt 'P-1'
_space_group_name_Hall '-P 1'
loop_
_symmetry_equiv_pos_site_id
_symmetry_equiv_pos_as_xyz
 1 'x,y,z'
 2 '-x,-y,-z'
loop_
_atom_site_label
_atom_site_type_symbol
_atom_site_fract_x
_atom_site_fract_y
_atom_site_fract_z
C1    C     0.82571819377658 0.37425077255370 0.63594993504310 
C2    C     0.67564819191759 0.28855002018850 0.61989117327675 
C3    C     0.93330008997527 0.32682004904316 0.69047948994026 
C4    C     0.58520522922519 0.15843391951715 0.68723057795536 
C5    C     0.94362739282153 0.19212860695441 0.69621061692674 
C6    C     0.60679357445689 0.11591563104577 0.79391285688449 
C7    C     0.87188370007076 0.10188420538734 0.63177800110914 
C8    C     0.66933757747757 0.20707655643593 0.86277091592769 
C9    C     0.87078667185903 0.51723666883576 0.59467934891978 
C10   C     0.60978226316143 0.33722011483918 0.53406113712680 
C11   C     0.04651810301445 0.42263220309061 0.73276506952214 
C12   C     0.47007907165079 0.06450069902535 0.64456782072848 
C13   C     0.04262925276562 0.15143457239047 0.76235679451164 
C14   C     0.56257698553380 0.97264157808472 0.83381988464728 
C15   C     0.65955037750688 0.34213712588037 0.85541738850431 
C16   C     0.88591825825405 0.97495784496569 0.63842780571267 
C17   C     0.73414440831847 0.15706663097363 0.94824891850904 
C18   C     0.79079109490978 0.56660726238770 0.51866427920317 
C19   C     0.67184611105088 0.47750426272789 0.48325529179333 
C20   C     0.99568688255689 0.61090440948287 0.62990557202191 
C21   C     0.48014818605036 0.24556320717199 0.50098862582086 
C22   C     0.07220457411710 0.56483893723766 0.70378859300807 
C23   C     0.41938964326044 0.11112616486595 0.55053481009583 
C24   C     0.14262865650829 0.37836412727989 0.79875446128308 
C25   C     0.40883580012497 0.92390505869567 0.69476694594021 
C26   C     0.13671586214553 0.24608395117081 0.81656783879330 
C27   C     0.46327079381161 0.87817589170672 0.78206892837462 
C28   C     0.74384861011980 0.43056089502419 0.91846235925702 
C29   C     0.05275179054264 0.02013650678403 0.76907924502578 
C30   C     0.61730322992760 0.92460625873019 0.92541233360876 
C31   C     0.56174336811728 0.38929664995695 0.79413938547097 
C32   C     0.97359058267861 0.93154802218059 0.70992583687337 
C33   C     0.71089546435559 0.01529933073761 0.97566807662408 
C34   C     0.81421339898238 0.24699374452708 0.01119779943896 
C35   C     0.82283087334902 0.37999229668080 0.99505126187362 
C36   C     0.56186144192769 0.52117840694052 0.78545577445276 
C37   C     0.74442166057541 0.56601688656126 0.90661517136168 
C38   C     0.65831157363531 0.61250806618835 0.83875419289663 
H1    H     0.80555070248817 0.13406886853922 0.57502747692571 
H2    H     0.82996661315103 0.90851152127119 0.58735298624851 
H3    H     0.83086468451190 0.67576464540621 0.48556299925919 
H4    H     0.61829685087780 0.51382084466283 0.41933685293858 
H5    H     0.02558176773361 0.71958455970851 0.59816835194211 
H6    H     0.43428068620577 0.28406069487633 0.43348714778995 
H7    H     0.16128472667991 0.63584412645229 0.73640188424020 
H8    H     0.32854949589121 0.03790891981547 0.52105832635265 
H9    H     0.22327112660868 0.45329312768319 0.83377065404849 
H10   H     0.32498909891018 0.85347585469747 0.65838325487941 
H11   H     0.20992538105900 0.21346360802482 0.86777766829742 
H12   H     0.42635719658251 0.76960059228268 0.81665226535488 
H13   H     0.12850478115265 0.99145496771447 0.82003002109029 
H14   H     0.58442852649334 0.81487739383002 0.95388608302854 
H15   H     0.48454400901162 0.32063808852013 0.75328285183310 
H16   H     0.98061421463526 0.83007377880501 0.71718496297675 
H17   H     0.75969371002799 0.97957536505792 0.04247932347657 
H18   H     0.86730241007696 0.20652814770346 0.07368656562805 
H19   H     0.88496621765634 0.44797403282054 0.04308986603731 
H20   H     0.48627214870271 0.55426190007148 0.73675843120202 
H21   H     0.81380246141581 0.63292478192051 0.95282750373993 
H22   H     0.66311502971423 0.71789745901626 0.82779090313959 
