data_stdin
_audit_creation_method 'critic2'
_audit_creation_date 2023-8-11
_chemical_formula_sum 'C38 H22'
_cell_formula_units_Z 4
_cell_length_a         9.8688633211
_cell_length_b        27.6189234628
_cell_length_c         9.8399337790
_cell_angle_alpha        89.9954
_cell_angle_beta        64.3588
_cell_angle_gamma        89.9967
_cell_volume          2417.921246
_space_group_crystal_system monoclinic
_space_group_IT_number 14
_space_group_name_H-M_alt 'P2_1/c'
_space_group_name_Hall '-P 2ybc'
loop_
_symmetry_equiv_pos_site_id
_symmetry_equiv_pos_as_xyz
 1 'x,y,z'
 2 '-x,-y,-z'
 3 '-x,-1/2+y,-1/2-z'
 4 'x,-1/2-y,-1/2+z'
loop_
_atom_site_label
_atom_site_type_symbol
_atom_site_fract_x
_atom_site_fract_y
_atom_site_fract_z
C1    C     0.58024433956260 0.60663845231805 0.29382348017447 
C2    C     0.51901941291269 0.64636309724344 0.39850112739739 
C3    C     0.66060472080895 0.56584313336905 0.31500119945543 
C4    C     0.57830470030034 0.66232320209863 0.50195651129445 
C5    C     0.64280902123378 0.54842263404499 0.46091685244993 
C6    C     0.73009572932080 0.65305804661794 0.48186162881173 
C7    C     0.51890502342348 0.56073490635990 0.59815686245058 
C8    C     0.85763794364263 0.64505838860967 0.33825896450606 
C9    C     0.55878619832271 0.60822459267111 0.15972818543566 
C10   C     0.39419368626833 0.67207155560677 0.39783727923384 
C11   C     0.75490856527436 0.53862968045596 0.18588719434989 
C12   C     0.47921871491845 0.68751846457770 0.63400520051110 
C13   C     0.74831700390449 0.51413890980183 0.46775039243373 
C14   C     0.75427333896390 0.65139414354306 0.61454813583568 
C15   C     0.87189252083080 0.66429380754316 0.19523841286036 
C16   C     0.50707953576403 0.54376744973252 0.73493549597510 
C17   C     0.98339419377921 0.61990275683307 0.33802287593492 
C18   C     0.44746420893937 0.63938174013017 0.15171228117873 
C19   C     0.35895302339876 0.66724954231478 0.27265991846728 
C20   C     0.64702829562043 0.57809996146588 0.03546498513036 
C21   C     0.30712272763643 0.70274187867956 0.52187579116547 
C22   C     0.74902934169829 0.54648134812437 0.04546217898235 
C23   C     0.34299810374128 0.70744385907069 0.64095626367072 
C24   C     0.85210201662480 0.50228956556150 0.19794707570850 
C25   C     0.51613839083696 0.69184624238648 0.75840741632268 
C26   C     0.85623266202820 0.49266965926457 0.33214865655039 
C27   C     0.64443113797441 0.67092634679409 0.75230025260125 
C28   C     0.99101087889985 0.64718637461398 0.05821647553446 
C29   C     0.73690099621171 0.49881859815204 0.60953082660803 
C30   C     0.88933081657015 0.63100541838170 0.60823069062055 
C31   C     0.78203381311827 0.70259740725428 0.18363570026410 
C32   C     0.61876271307507 0.51347695049467 0.74165207609553 
C33   C     0.99594014723989 0.61298212236462 0.47557508514791 
C34   C     0.09965165165399 0.60299853307261 0.19927087926484 
C35   C     0.09962051142647 0.61420983031204 0.06426181272175 
C36   C     0.80219732327906 0.72093345823230 0.04534447673422 
C37   C     0.00648719764254 0.66547824979383 0.91792937336840 
C38   C     0.91366136054232 0.70184386121213 0.91073375797096 
H1    H     0.42899867442627 0.58277800708321 0.59561124976015 
H2    H     0.40914828015909 0.55323125263297 0.83817584932282 
H3    H     0.42885180870777 0.63861470546443 0.05044868468418 
H4    H     0.26377879690624 0.68720570039561 0.27277939927620 
H5    H     0.63382968094447 0.58145062734441 0.93159355741498 
H6    H     0.20810596109592 0.72053803235698 0.52266931858898 
H7    H     0.82125288935187 0.52488932893163 0.94825046267509 
H8    H     0.27020919701238 0.72739826325116 0.74153876673881 
H9    H     0.92340231546682 0.48223264080485 0.09696792749419 
H10   H     0.43834626893027 0.71066411931572 0.85950544975912 
H11   H     0.93553092558930 0.46640310302557 0.33896234288873 
H12   H     0.66870840123823 0.67115754935714 0.85023336827246 
H13   H     0.82203133778089 0.47422644017271 0.61190783626066 
H14   H     0.90373829887622 0.62908907863070 0.71173297224743 
H15   H     0.69705640165882 0.71884336955818 0.28524206259466 
H16   H     0.60881856160450 0.50043235587592 0.84994004881690 
H17   H     0.09708168536298 0.59588607791510 0.47131037006472 
H18   H     0.18959575439422 0.58128072954997 0.20392268679119 
H19   H     0.18729527874102 0.60076107890938 0.95863039626607 
H20   H     0.73187687404449 0.75063461051595 0.04116499716996 
H21   H     0.09703542558268 0.65137926477135 0.81537639773829 
H22   H     0.92795668754839 0.71649645527586 0.80249979309179 
