data_stdin
_audit_creation_method 'critic2'
_audit_creation_date 2023-8-11
_chemical_formula_sum 'C38 H22'
_cell_formula_units_Z 4
_cell_length_a         9.8217116295
_cell_length_b         9.1409729406
_cell_length_c        27.9072370146
_cell_angle_alpha        89.9993
_cell_angle_beta        73.2242
_cell_angle_gamma        90.0000
_cell_volume          2398.881430
_space_group_crystal_system monoclinic
_space_group_IT_number 14
_space_group_name_H-M_alt 'P2_1/c'
_space_group_name_Hall '-P 2ybc'
loop_
_symmetry_equiv_pos_site_id
_symmetry_equiv_pos_as_xyz
 1 'x,y,z'
 2 '-x,-y,-z'
 3 '-x,-1/2+y,-1/2-z'
 4 'x,-1/2-y,-1/2+z'
loop_
_atom_site_label
_atom_site_type_symbol
_atom_site_fract_x
_atom_site_fract_y
_atom_site_fract_z
C1    C     0.86220404682859 0.51877653034448 0.58311040455401 
C2    C     0.79338410796759 0.64837920780504 0.57121670773631 
C3    C     0.79207281841610 0.38320211133690 0.60278225946627 
C4    C     0.64603186279875 0.68672535280483 0.59465884029684 
C5    C     0.66158542749180 0.33046878479875 0.59425267087872 
C6    C     0.55891653455792 0.62548361947643 0.64132964522608 
C7    C     0.60423455133722 0.38888627446325 0.55720523107621 
C8    C     0.61027424734214 0.57017149108376 0.68158227115277 
C9    C     0.01201354340110 0.52712585207559 0.57537202958211 
C10   C     0.87780316627997 0.74831378081310 0.53553932360493 
C11   C     0.86045004755179 0.28992412719221 0.62959115659494 
C12   C     0.58075064211505 0.78804228218499 0.56927591933314 
C13   C     0.59094133688760 0.20648064257716 0.62178197305542 
C14   C     0.40935779847018 0.61864979751921 0.64795190949805 
C15   C     0.73732335468748 0.62210745735283 0.69309938633374 
C16   C     0.48027717420084 0.33480664361292 0.54990961338587 
C17   C     0.52293339730682 0.46772503010260 0.71511546013140 
C18   C     0.09309600825627 0.63824106956556 0.54416189962596 
C19   C     0.02877445933312 0.73790502150877 0.52129332678861 
C20   C     0.08071706529384 0.42462922470000 0.59901607588942 
C21   C     0.81124805508784 0.86216451211639 0.51551737042438 
C22   C     0.00423551869084 0.31628210326498 0.62856354098620 
C23   C     0.66664390280604 0.87659125783262 0.53008175925811 
C24   C     0.78670612239987 0.16697440128779 0.65651379503091 
C25   C     0.42971733480763 0.79743409498089 0.58215421844545 
C26   C     0.65412834411628 0.12982245588014 0.65439658406444 
C27   C     0.34698095430058 0.70643858847511 0.61769738493313 
C28   C     0.78104958460242 0.55244711728963 0.73229680741801 
C29   C     0.46104683785026 0.15702430138206 0.61519188919090 
C30   C     0.32258881833155 0.52269209974941 0.68430357821807 
C31   C     0.81478147444353 0.74767566056128 0.67075489076321 
C32   C     0.40544797889811 0.22036387382628 0.58007095335255 
C33   C     0.38114947284101 0.44023682872086 0.71407755691871 
C34   C     0.57353592657408 0.39623198670850 0.75210395387782 
C35   C     0.69931660870912 0.43508383555651 0.75989926305428 
C36   C     0.93239654715476 0.79649345159287 0.68397259767827 
C37   C     0.90184417482830 0.60444797513483 0.74497890465121 
C38   C     0.97780501840212 0.72382412007866 0.72111318291144 
H1    H     0.66029955561791 0.47704597967477 0.53360061687497 
H2    H     0.44066699354977 0.38023095106401 0.52043668899968 
H3    H     0.20792860053658 0.63858263886083 0.53728482906622 
H4    H     0.09157277042003 0.81397108990709 0.49358376327631 
H5    H     0.19410653966773 0.43700135774597 0.59426132065051 
H6    H     0.87827370843810 0.93425688826179 0.48732988767448 
H7    H     0.05424514223996 0.24392712222059 0.64957763911906 
H8    H     0.61432888657026 0.95847927756881 0.51321083567956 
H9    H     0.83801436666244 0.10393915486784 0.67956457636345 
H10   H     0.38232459065818 0.87256529357247 0.56121897446173 
H11   H     0.59651325495264 0.03878202255834 0.67615569702932 
H12   H     0.23199397079787 0.70273262528821 0.62469277654606 
H13   H     0.40770968756948 0.06528148958095 0.63783471194683 
H14   H     0.21026804043871 0.51307242418245 0.68668399936040 
H15   H     0.78004076775022 0.80975102212353 0.64329615298663 
H16   H     0.30609167738387 0.18116105954101 0.57481091061774 
H17   H     0.31811535510804 0.35940319474762 0.73963320860287 
H18   H     0.50796569311011 0.31085163066395 0.77460494717469 
H19   H     0.73476062744232 0.38134326208330 0.78902196773529 
H20   H     0.98903465760969 0.89291099586603 0.66545375039375 
H21   H     0.93328450050638 0.54879652754807 0.77465113391031 
H22   H     0.06964607394550 0.76230653802919 0.73185304387132 
