data_stdin
_audit_creation_method 'critic2'
_audit_creation_date 2023-8-11
_chemical_formula_sum 'C38 H22'
_cell_formula_units_Z 8
_cell_length_a        20.1082421383
_cell_length_b         9.9915379706
_cell_length_c        24.5056732363
_cell_angle_alpha        90.0004
_cell_angle_beta        84.0662
_cell_angle_gamma        89.9996
_cell_volume          4897.110535
_space_group_crystal_system monoclinic
_space_group_IT_number 15
_space_group_name_H-M_alt 'C2/c'
_space_group_name_Hall '-C 2yc'
loop_
_symmetry_equiv_pos_site_id
_symmetry_equiv_pos_as_xyz
 1 'x,y,z'
 2 '-1/2-x,-1/2-y,-1/2-z'
 3 '-x,-1/2+y,-1/2-z'
 4 'x,-1/2-y,-1/2+z'
 5 '-1/2+x,-1/2+y,-1/2+z'
 6 '-x,-y,-z'
 7 '-1/2-x,y,-z'
 8 '-1/2+x,-y,z'
loop_
_atom_site_label
_atom_site_type_symbol
_atom_site_fract_x
_atom_site_fract_y
_atom_site_fract_z
C1    C     0.06996869481883 0.91958070148571 0.42700848492472 
C2    C     0.11042467202161 0.83829135397012 0.45983043322213 
C3    C     0.03142364177782 0.87068959982936 0.38446140843681 
C4    C     0.14165993549694 0.71231695135641 0.44246120395281 
C5    C     0.00552635921568 0.73542247075274 0.38179351516331 
C6    C     0.15470436223806 0.66822150324468 0.38594856948298 
C7    C     0.00263169901390 0.64425830111996 0.42626655384501 
C8    C     0.16607757274757 0.75477120163955 0.33853847432961 
C9    C     0.06727805085005 0.05979539887505 0.43839960168421 
C10   C     0.12159222400269 0.88749664771825 0.51278738007115 
C11   C     0.01201949303693 0.96411278145622 0.34518176573945 
C12   C     0.15913360998255 0.62327797961527 0.48419534428858 
C13   C     0.97582239279617 0.69333358713212 0.33398417171898 
C14   C     0.15668522919254 0.52702811564110 0.37661871112095 
C15   C     0.19228635993716 0.89018804283856 0.33983333640151 
C16   C     0.97819772261937 0.51579605292355 0.42214170032286 
C17   C     0.15715645525425 0.70003089810680 0.28613561261665 
C18   C     0.08748582713728 0.10973450026429 0.48848564930698 
C19   C     0.10821087902044 0.02383736169001 0.52666693505499 
C20   C     0.04300670241635 0.15036490827292 0.40029838267261 
C21   C     0.14796481984828 0.80122057299385 0.55154958196878 
C22   C     0.02031809475929 0.10396353408487 0.35317804867867 
C23   C     0.16281736936670 0.67098133865056 0.53857217446082 
C24   C     0.98101039193835 0.91938178883242 0.29862465483723 
C25   C     0.17085372082551 0.48536564681351 0.47207494760646 
C26   C     0.96596627428540 0.78770368770001 0.29191049637995 
C27   C     0.16414698538124 0.43714268573559 0.42072438427955 
C28   C     0.19395938750994 0.97173514042144 0.29170133689640 
C29   C     0.95315247930618 0.55998062405781 0.32999411509569 
C30   C     0.15167986817756 0.47535825534621 0.32309995299911 
C31   C     0.22221432362263 0.94351324117616 0.38498573897557 
C32   C     0.95533619810590 0.47119069421189 0.37286971804690 
C33   C     0.14785472887124 0.56001676356221 0.27976840275685 
C34   C     0.16107988168496 0.78352046247894 0.23863488496100 
C35   C     0.17627974475250 0.91607975818618 0.24160281264467 
C36   C     0.24776739203376 0.07208993749295 0.38442020311271 
C37   C     0.21817967949882 0.10454675546463 0.29276508723341 
C38   C     0.24455656664995 0.15509654769900 0.33833617836359 
H1    H     0.01936329255483 0.67690816609696 0.46478264219872 
H2    H     0.97587994005098 0.44924769793930 0.45742486258465 
H3    H     0.08256415039907 0.21644480028815 0.49696046683920 
H4    H     0.11695110768381 0.05878199986351 0.56739871564962 
H5    H     0.04391409628013 0.25716033916417 0.40907689471602 
H6    H     0.15424684170671 0.84106752118011 0.59204824021928 
H7    H     0.00416527696648 0.17296344465262 0.32274369463435 
H8    H     0.17929901811148 0.60208886304586 0.56887905486923 
H9    H     0.96948865681181 0.99327431278666 0.26835080185778 
H10   H     0.18160059562998 0.41888385766797 0.50529756494894 
H11   H     0.94282667390030 0.75420914461145 0.25599397555221 
H12   H     0.16704473077603 0.33023498500705 0.41207658082592 
H13   H     0.93272230166782 0.52890891925231 0.29255220293149 
H14   H     0.15021518633534 0.36717281148143 0.31778085711044 
H15   H     0.22649355013632 0.88146600491535 0.42073942532502 
H16   H     0.93763361803182 0.36894014705849 0.36942817967583 
H17   H     0.14271966228012 0.52100121771649 0.23893635033466 
H18   H     0.15291584638884 0.73752574487213 0.19955371495438 
H19   H     0.17984308461913 0.97892792813076 0.20510324265191 
H20   H     0.27045860330963 0.10874921854366 0.42001686785580 
H21   H     0.21718630250856 0.16471372723720 0.25581177972348 
H22   H     0.26412864068476 0.25676544534111 0.33840896510592 
