data_stdin
_audit_creation_method 'critic2'
_audit_creation_date 2023-8-11
_chemical_formula_sum 'C38 H22'
_cell_formula_units_Z 4
_cell_length_a        10.4536584521
_cell_length_b        15.8375270715
_cell_length_c        15.2987458858
_cell_angle_alpha        90.0008
_cell_angle_beta        73.7020
_cell_angle_gamma        89.9998
_cell_volume          2431.078569
_space_group_crystal_system monoclinic
_space_group_IT_number 14
_space_group_name_H-M_alt 'P2_1/c'
_space_group_name_Hall '-P 2ybc'
loop_
_symmetry_equiv_pos_site_id
_symmetry_equiv_pos_as_xyz
 1 'x,y,z'
 2 '-x,-y,-z'
 3 '-x,-1/2+y,-1/2-z'
 4 'x,-1/2-y,-1/2+z'
loop_
_atom_site_label
_atom_site_type_symbol
_atom_site_fract_x
_atom_site_fract_y
_atom_site_fract_z
C1    C     0.66200157991165 0.20243929999400 0.13775337911756 
C2    C     0.75392545241295 0.13512312164815 0.14134267619261 
C3    C     0.69987900803356 0.28503028188919 0.09886892887753 
C4    C     0.89043047726844 0.14809046490566 0.14242586715076 
C5    C     0.82018348083114 0.30223428250819 0.02621757483420 
C6    C     0.94006687706837 0.22536688863538 0.17106286356824 
C7    C     0.89777414377069 0.23813333011488 0.97155279786520 
C8    C     0.85991992500096 0.28430787514687 0.23541238459514 
C9    C     0.52359228740429 0.18576319135541 0.17666447299316 
C10   C     0.70623664517205 0.05048543913840 0.14811169710383 
C11   C     0.60821627824422 0.35256621667380 0.12827588259084 
C12   C     0.98200371091275 0.08061537893961 0.11263948961360 
C13   C     0.85650825756925 0.38792739763619 0.00160760027499 
C14   C     0.07822747237512 0.24353609554981 0.13410488820079 
C15   C     0.74033637751881 0.26124537562994 0.30594392216280 
C16   C     0.01059559742262 0.25668003554478 0.90177824124485 
C17   C     0.90730540423455 0.36842423556085 0.23464821217724 
C18   C     0.47839542532792 0.10091625561721 0.19404001126110 
C19   C     0.56649793676477 0.03500509898760 0.17341076087109 
C20   C     0.43160286943780 0.25407898548021 0.19836105872325 
C21   C     0.79868157634413 0.98200754024704 0.13205101267678 
C22   C     0.47489063795029 0.33546091345528 0.18050279816180 
C23   C     0.93289036166681 0.99716549619361 0.10825900507919 
C24   C     0.64738949651654 0.43738031773978 0.10200624347376 
C25   C     0.12150581741390 0.09764661053832 0.08670548867020 
C26   C     0.76950819605776 0.45493814435286 0.04367795934929 
C27   C     0.16711837045300 0.17809749412870 0.09078489382076 
C28   C     0.65838564987182 0.32634101511558 0.35779199790027 
C29   C     0.97422575358214 0.40541393552597 0.93125562615520 
C30   C     0.12618593117456 0.32657460211298 0.14168139436604 
C31   C     0.70652280589368 0.17667675462062 0.33275352669830 
C32   C     0.05138737654508 0.34103385230343 0.88263321237512 
C33   C     0.04080968627061 0.38860782332511 0.18524534316851 
C34   C     0.82376685345502 0.43180153054433 0.28794132480822 
C35   C     0.70200234581031 0.41202113121340 0.34540112170740 
C36   C     0.59029729763634 0.15696631434213 0.39881823938008 
C37   C     0.53852113684234 0.30468827005872 0.42416951110527 
C38   C     0.50286289660734 0.22130282533167 0.44276222086476 
H1    H     0.86494087434489 0.17301944011636 0.98270788581301 
H2    H     0.06596344278418 0.20591607380482 0.85975428332977 
H3    H     0.37184605632782 0.08930610290938 0.22144874432614 
H4    H     0.53151653065102 0.96992698312728 0.18096052994989 
H5    H     0.32704884088030 0.24036824932996 0.23138290584536 
H6    H     0.76047839128711 0.91772086457731 0.13485972931654 
H7    H     0.40614740591603 0.38827814994854 0.20098650954670 
H8    H     0.00422809829206 0.94575806817322 0.08864990662746 
H9    H     0.57714117097850 0.48800006074120 0.12992363076294 
H10   H     0.18989180149371 0.04610947048808 0.05938680980353 
H11   H     0.79965634253945 0.51983956998688 0.02479663909246 
H12   H     0.27277443132612 0.19258169428348 0.06477791627533 
H13   H     0.00122841686071 0.47112526223910 0.91496579057783 
H14   H     0.23140733574262 0.34003114331971 0.11099863429104 
H15   H     0.77521004760298 0.12638787291328 0.30262768073072 
H16   H     0.14062621745563 0.35553417980652 0.82782110198503 
H17   H     0.07578644398260 0.45300914697207 0.18838507346490 
H18   H     0.86069261418496 0.49643880940933 0.28242810663209 
H19   H     0.63899644876153 0.46078597573400 0.38603402951112 
H20   H     0.56817925373136 0.09142241962063 0.41880907816295 
H21   H     0.47678427119036 0.35546008416999 0.46207961654719 
H22   H     0.41085676136125 0.20507389182861 0.49399669352898 
