data_stdin
_audit_creation_method 'critic2'
_audit_creation_date 2023-8-11
_chemical_formula_sum 'C38 H22'
_cell_formula_units_Z 2
_cell_length_a         9.9471853967
_cell_length_b         9.7377254913
_cell_length_c        16.2165378623
_cell_angle_alpha       102.6905
_cell_angle_beta        57.1580
_cell_angle_gamma       115.1980
_cell_volume          1194.010040
_space_group_crystal_system triclinic
_space_group_IT_number 2
_space_group_name_H-M_alt 'P-1'
_space_group_name_Hall '-P 1'
loop_
_symmetry_equiv_pos_site_id
_symmetry_equiv_pos_as_xyz
 1 'x,y,z'
 2 '-x,-y,-z'
loop_
_atom_site_label
_atom_site_type_symbol
_atom_site_fract_x
_atom_site_fract_y
_atom_site_fract_z
C1    C     0.04733024486513 0.87999149227316 0.83755982428732 
C2    C     0.87165469594644 0.79131329939719 0.90852186544489 
C3    C     0.09779449521100 0.96365864656062 0.75554319528842 
C4    C     0.73177565961336 0.72008827240506 0.88855660523996 
C5    C     0.98623991365809 0.01758461356573 0.75110503920276 
C6    C     0.75508658040013 0.68157789078281 0.79144517714399 
C7    C     0.83366439403474 0.02958963772499 0.83483810343667 
C8    C     0.90320852838095 0.65341158299076 0.70761034214720 
C9    C     0.17997413403451 0.88589028259991 0.85090164772847 
C10   C     0.83425137739096 0.77081961571665 0.00403976887206 
C11   C     0.27196154946242 0.00650036053386 0.67669206802385 
C12   C     0.56104257162426 0.69134543027761 0.96993488093601 
C13   C     0.03716570785879 0.07229400800448 0.65960382046847 
C14   C     0.62219539806174 0.67355149637104 0.77738176250876 
C15   C     0.01028377392960 0.59467824049284 0.71317520382393 
C16   C     0.73071330287038 0.08167682938302 0.82796701530019 
C17   C     0.93779056010486 0.67133348746749 0.61243630520056 
C18   C     0.13790602397888 0.84248825594971 0.94289780907850 
C19   C     0.97135673645325 0.79890100403609 0.01964927736414 
C20   C     0.35457595400008 0.93810837408952 0.77300644637520 
C21   C     0.65978085993029 0.72103152188755 0.08295152247495 
C22   C     0.39781071787678 0.98863773337801 0.68630841394832 
C23   C     0.52871795271925 0.69357261636620 0.06729022981826 
C24   C     0.32161654652397 0.06908647493473 0.58796218604346 
C25   C     0.42490237677654 0.66243257572685 0.95321515155896 
C26   C     0.20535412291067 0.09143339314262 0.57728241924378 
C27   C     0.45782065224601 0.66459723950048 0.85983723261491 
C28   C     0.16570911493112 0.59002676564307 0.62598650912705 
C29   C     0.92567190341021 0.11846017130035 0.65363650209409 
C30   C     0.65417328317268 0.67581040562855 0.68075569370430 
C31   C     0.96121181824620 0.52771204965964 0.79928630660952 
C32   C     0.77479880509714 0.12356341575073 0.73612751159046 
C33   C     0.81154118651767 0.68471696616044 0.60112254614442 
C34   C     0.09597387654004 0.66925879759714 0.52730112785690 
C35   C     0.21048068312713 0.63735308659687 0.53414390721560 
C36   C     0.06043591001520 0.46442977850525 0.80100134065098 
C37   C     0.26729168155301 0.52776364370741 0.63007921730602 
C38   C     0.21609481925345 0.46514464272022 0.71589235852204 
H1    H     0.79804485125555 0.99930179843050 0.90641803985042 
H2    H     0.61520299141589 0.09059266268230 0.89412267297563 
H3    H     0.24274218269504 0.85316115930091 0.95193789778179 
H4    H     0.94014849976032 0.78077486542488 0.09295153421487 
H5    H     0.45235955919491 0.93445395481423 0.78336340260260 
H6    H     0.63389265404209 0.71078128964112 0.15621600635158 
H7    H     0.53039645971516 0.02255288375483 0.62495100328504 
H8    H     0.39659200397208 0.66559170710740 0.12834842157143 
H9    H     0.45500122270362 0.09755570202791 0.52830216444209 
H10   H     0.29602801968769 0.64490941031633 0.01611612307225 
H11   H     0.24231984195555 0.13271662280412 0.50786524541738 
H12   H     0.35718738333313 0.65330114748310 0.84668622656007 
H13   H     0.96369761146718 0.15343470939126 0.58240803444551 
H14   H     0.55236241196323 0.67470191065510 0.67220707321518 
H15   H     0.84077582953654 0.52387555349078 0.86552653879748 
H16   H     0.69270935788312 0.16329109830801 0.73073868998242 
H17   H     0.83872963102695 0.69169692677550 0.52719585797156 
H18   H     0.12153153453561 0.69025238787643 0.45593031822420 
H19   H     0.33081659315460 0.63606609746384 0.46880214308401 
H20   H     0.01649481254176 0.41215128972981 0.86852754838886 
H21   H     0.38503264341336 0.52598331280494 0.56255684994036 
H22   H     0.29294511332913 0.41339636625398 0.71705519483465 
