data_stdin
_audit_creation_method 'critic2'
_audit_creation_date 2023-8-11
_chemical_formula_sum 'C38 H22'
_cell_formula_units_Z 2
_cell_length_a         8.0246256929
_cell_length_b        15.3342659839
_cell_length_c         9.9087043510
_cell_angle_alpha       101.9553
_cell_angle_beta        86.6411
_cell_angle_gamma        93.4043
_cell_volume          1189.393138
_space_group_crystal_system triclinic
_space_group_IT_number 2
_space_group_name_H-M_alt 'P-1'
_space_group_name_Hall '-P 1'
loop_
_symmetry_equiv_pos_site_id
_symmetry_equiv_pos_as_xyz
 1 'x,y,z'
 2 '-x,-y,-z'
loop_
_atom_site_label
_atom_site_type_symbol
_atom_site_fract_x
_atom_site_fract_y
_atom_site_fract_z
C1    C     0.93253008851803 0.33266268543584 0.41093036930474 
C2    C     0.81294468655578 0.38156488738246 0.35616282280366 
C3    C     0.05024210384188 0.27236995476291 0.32973328858118 
C4    C     0.74362025574075 0.35338000219699 0.22160911610957 
C5    C     0.11843296953831 0.27894071876444 0.19285183488149 
C6    C     0.73905185195518 0.26250330421328 0.14334603013044 
C7    C     0.09915574699619 0.35352969977792 0.13223155289116 
C8    C     0.73479645509667 0.18349981717218 0.20202338027038 
C9    C     0.93473211604519 0.34566026380767 0.55758278121306 
C10   C     0.75599427319596 0.46183455187236 0.44141640578048 
C11   C     0.11508405154417 0.20716053970072 0.39311952403694 
C12   C     0.68142132372794 0.42040421351238 0.16022798724131 
C13   C     0.22273409405336 0.21081768143518 0.11784423658739 
C14   C     0.73998570094035 0.25057709897191 0.99668408105281 
C15   C     0.66942439967270 0.17923827433485 0.34042854143126 
C16   C     0.16565195615987 0.35748671150502 0.00164120252981 
C17   C     0.78658672357943 0.10269366966390 0.11538938284963 
C18   C     0.85909491225067 0.42077880014718 0.64269198675299 
C19   C     0.78296331951779 0.48082875778379 0.58534048950798 
C20   C     0.01166791515855 0.28310799005289 0.61884555558894 
C21   C     0.67028218805193 0.52256990008696 0.38256751459260 
C22   C     0.08730187748885 0.21181713400329 0.53770568763385 
C23   C     0.64490439836311 0.50519131980580 0.24414217687988 
C24   C     0.21833935989994 0.14026054121953 0.31486311664837 
C25   C     0.66005360313290 0.40270141799652 0.01526635828963 
C26   C     0.26711923285449 0.14038541943888 0.18075222019420 
C27   C     0.70106836776013 0.32237041103358 0.93489607517928 
C28   C     0.69464112770399 0.10178634109089 0.39491314642683 
C29   C     0.28845099302992 0.21595289233947 0.98389418081697 
C30   C     0.78063556411720 0.16695130546335 0.91207794437869 
C31   C     0.56816501468256 0.24491612914412 0.42137783070106 
C32   C     0.25827934426805 0.28716931178894 0.92504998307889 
C33   C     0.81383552559942 0.09690531348947 0.97050836453956 
C34   C     0.80790869837777 0.02603949795464 0.17250134526315 
C35   C     0.77120774892872 0.02696544498085 0.30899206524869 
C36   C     0.50811411235271 0.23882741391742 0.55277646187974 
C37   C     0.63356022104064 0.09755731835810 0.53048847989404 
C38   C     0.54320828404062 0.16540913642384 0.60946123983501 
H1    H     0.03172910342051 0.40956882944385 0.19002550968779 
H2    H     0.14652841490254 0.41577443321263 0.95855064276244 
H3    H     0.86947931929291 0.43109971534573 0.75406051811126 
H4    H     0.73551005799688 0.54174996276120 0.64893205243994 
H5    H     0.00551223637005 0.29204299451792 0.73094541750794 
H6    H     0.63130264029917 0.58418197905329 0.44979035610752 
H7    H     0.13849062102681 0.16106995249404 0.58346335555749 
H8    H     0.59054898729600 0.55421563282729 0.19664381214638 
H9    H     0.26253630610571 0.09055671506078 0.36673990187508 
H10   H     0.61883578341317 0.45588257151082 0.96918783367033 
H11   H     0.34915088351421 0.09025078430990 0.12278350104447 
H12   H     0.69716015076292 0.31044565771222 0.82285283942318 
H13   H     0.36734738204954 0.16304359227561 0.92977463217294 
H14   H     0.78908486725171 0.16093639375380 0.80043541363698 
H15   H     0.53267440647285 0.29996123632172 0.37754155973984 
H16   H     0.30923629470920 0.29018727074566 0.82184369059486 
H17   H     0.85339440034124 0.03424700677369 0.90663425209204 
H18   H     0.85494253322840 0.96656487580732 0.10434530476395 
H19   H     0.79144650111485 0.96899175470748 0.35253951351693 
H20   H     0.42884373564675 0.29010654398829 0.61084302714833 
H21   H     0.65485684776378 0.03817604378477 0.57012157895226 
H22   H     0.49562240937118 0.16068197752015 0.71297247217740 
