data_stdin
_audit_creation_method 'critic2'
_audit_creation_date 2023-8-11
_chemical_formula_sum 'C38 H22'
_cell_formula_units_Z 2
_cell_length_a        15.3296261846
_cell_length_b         9.9118251772
_cell_length_c         8.0295084126
_cell_angle_alpha        86.5980
_cell_angle_beta        93.4034
_cell_angle_gamma       101.9922
_cell_volume          1189.928028
_space_group_crystal_system triclinic
_space_group_IT_number 2
_space_group_name_H-M_alt 'P-1'
_space_group_name_Hall '-P 1'
loop_
_symmetry_equiv_pos_site_id
_symmetry_equiv_pos_as_xyz
 1 'x,y,z'
 2 '-x,-y,-z'
loop_
_atom_site_label
_atom_site_type_symbol
_atom_site_fract_x
_atom_site_fract_y
_atom_site_fract_z
C1    C     0.76249280749614 0.64316736190321 0.73914639861168 
C2    C     0.85339725617388 0.72153866966894 0.74365959182983 
C3    C     0.68344343618276 0.70170833499448 0.73498148100234 
C4    C     0.88157686243328 0.85603142605512 0.81296090816451 
C5    C     0.67915262790308 0.84010469848374 0.66968760169756 
C6    C     0.83266115236392 0.91061367337908 0.93255723164063 
C7    C     0.74482369913362 0.92116558959092 0.56839521667415 
C8    C     0.77242291757335 0.82927929293762 0.05033458502108 
C9    C     0.75058259633656 0.49654284476456 0.73999419995600 
C10   C     0.92045215314976 0.66033989634199 0.68137603361520 
C11   C     0.60261298993421 0.61494333432816 0.78674232845258 
C12   C     0.96185847724510 0.94142450232193 0.75598069761393 
C13   C     0.60166522647016 0.89444930707964 0.69499052330378 
C14   C     0.84561791215534 0.05723007126816 0.93473781202302 
C15   C     0.77905958762791 0.69241600401496 0.11843660461046 
C16   C     0.73869742267322 0.05253668397802 0.50836844027609 
C17   C     0.70721720824456 0.89250346056925 0.11535130657480 
C18   C     0.82241615710593 0.43492561211188 0.70098930674488 
C19   C     0.90276409771435 0.51542833425089 0.65995411909886 
C20   C     0.66692808531858 0.41180847287929 0.78061070652988 
C21   C     0.00525644283803 0.74438463769225 0.64481937692393 
C22   C     0.59683806249128 0.47007949848818 0.81386653688181 
C23   C     0.02262349842212 0.88275971029015 0.67023477781271 
C24   C     0.52591962884324 0.67191272972867 0.80814934843063 
C25   C     0.98082625825319 0.08530851309598 0.78292654722935 
C26   C     0.52683039646140 0.80839222778621 0.77155985445434 
C27   C     0.92073098211022 0.14248433196719 0.85905003396192 
C28   C     0.71098474009213 0.61727238736000 0.22285077760761 
C29   C     0.59740828170163 0.03000974515111 0.63396492341619 
C30   C     0.78305103622713 0.11831696083406 0.01175359093790 
C31   C     0.85367550611576 0.63193540166290 0.09896420057541 
C32   C     0.66525391609425 0.10909010932582 0.54355573582324 
C33   C     0.71180606418983 0.03704603946448 0.08755888195440 
C34   C     0.64038515793355 0.81412856137395 0.21876713272033 
C35   C     0.64056003421729 0.68003884034475 0.26748028850475 
C36   C     0.85767749853545 0.50133855676790 0.16533538791460 
C37   C     0.71616108449442 0.48331853462395 0.28842873544985 
C38   C     0.78738344653151 0.42460055779826 0.25803401964160 
H1    H     0.79989023092511 0.87743835939800 0.53285698773771 
H2    H     0.78997103077654 0.11068207981985 0.42906165570455 
H3    H     0.81050595307169 0.32291120681418 0.69703671018215 
H4    H     0.95597311945235 0.46949042087478 0.61867293994253 
H5    H     0.66092377308986 0.30019141863940 0.78897715662268 
H6    H     0.05429755436330 0.69702582086236 0.59039739296549 
H7    H     0.53415378358376 0.40610038953760 0.85337371508814 
H8    H     0.08424659834581 0.95008302722162 0.63123548172570 
H9    H     0.46642732554716 0.60365685689010 0.85515655282504 
H10   H     0.04175728685948 0.14901110576191 0.73546055902541 
H11   H     0.46882645531107 0.85182036353885 0.79188244152697 
H12   H     0.93101849900861 0.25382022652290 0.86940397087666 
H13   H     0.53800116980910 0.06953501004873 0.65533238104609 
H14   H     0.79194609217097 0.23038994431000 0.00554897528925 
H15   H     0.90970379609605 0.68984940689630 0.03149410809686 
H16   H     0.66049856844078 0.21258013331702 0.49598939685101 
H17   H     0.66104958281707 0.08265860152983 0.13886017076699 
H18   H     0.59068901004750 0.86588825523675 0.26311899363298 
H19   H     0.59046912283399 0.62196940889884 0.34959996793919 
H20   H     0.91598407490416 0.45835954040194 0.14606581667580 
H21   H     0.66327518534690 0.42909123313058 0.36738387184189 
H22   H     0.79042773816446 0.32138237454471 0.30887017072878 
