data_stdin
_audit_creation_method 'critic2'
_audit_creation_date 2023-8-11
_chemical_formula_sum 'C38 H22'
_cell_formula_units_Z 2
_cell_length_a        13.1114133566
_cell_length_b         9.3219500269
_cell_length_c        10.6052401369
_cell_angle_alpha        70.5190
_cell_angle_beta        80.2713
_cell_angle_gamma        94.4778
_cell_volume          1191.764190
_space_group_crystal_system triclinic
_space_group_IT_number 2
_space_group_name_H-M_alt 'P-1'
_space_group_name_Hall '-P 1'
loop_
_symmetry_equiv_pos_site_id
_symmetry_equiv_pos_as_xyz
 1 'x,y,z'
 2 '-x,-y,-z'
loop_
_atom_site_label
_atom_site_type_symbol
_atom_site_fract_x
_atom_site_fract_y
_atom_site_fract_z
C1    C     0.20609331800949 0.60685943536293 0.88420266075094 
C2    C     0.31280043507157 0.58534193868691 0.84153732333900 
C3    C     0.13719814246783 0.66936652706043 0.79311824392142 
C4    C     0.38010082125582 0.67581574923734 0.71123862072495 
C5    C     0.14455981173579 0.65962422781497 0.65811913716361 
C6    C     0.36399254567189 0.82587754041705 0.62545297147849 
C7    C     0.20583149580782 0.56181008044716 0.61105318993635 
C8    C     0.30943789576171 0.93336336969442 0.67287442870719 
C9    C     0.16621387809956 0.56261734280693 0.02753801116998 
C10   C     0.35553045542419 0.47026883802835 0.93549810836764 
C11   C     0.05166336943084 0.73406132886032 0.84316580599657 
C12   C     0.46593925587767 0.61000141894310 0.66249247072826 
C13   C     0.08149556401153 0.74392353463108 0.56971157333672 
C14   C     0.40522832923001 0.87102555483395 0.48239598006574 
C15   C     0.30372396101522 0.94358213394313 0.80752029097072 
C16   C     0.21447111438298 0.56188461720287 0.47924646580793 
C17   C     0.26710605580826 0.04659903083120 0.57706943289047 
C18   C     0.21804652604105 0.46340186758396 0.12199987366389 
C19   C     0.30538226588270 0.40903597392362 0.07620891995255 
C20   C     0.07456312338368 0.61721691863552 0.07563690354685 
C21   C     0.44958557491929 0.41964197534285 0.88877288290578 
C22   C     0.02422937209816 0.71072341255268 0.98495116071587 
C23   C     0.49907477522657 0.48039711927509 0.75421083623039 
C24   C     0.98869313913146 0.81413340398869 0.75326433909762 
C25   C     0.51669561126173 0.67211012450693 0.52209141943246 
C26   C     0.00487776717160 0.82285979986111 0.62026903962775 
C27   C     0.48124388486884 0.79107826691082 0.43297466847806 
C28   C     0.23754389411374 0.04248924064249 0.84823195925981 
C29   C     0.09331189178034 0.74447514508395 0.43431699365385 
C30   C     0.36994457561546 0.99593266141285 0.38871010704663 
C31   C     0.36822481162899 0.87185265796031 0.89766189091506 
C32   C     0.16114513180698 0.65831795184896 0.38789725759948 
C33   C     0.29604933070800 0.07238285748628 0.43483405956724 
C34   C     0.20107349441466 0.14260291535630 0.62135858917270 
C35   C     0.18326614842093 0.13657318843794 0.75363645353213 
C36   C     0.36163248496134 0.88585088601537 0.02451325529439 
C37   C     0.23086698124671 0.05254824313138 0.97947230114289 
C38   C     0.29010832924071 0.97343660536860 0.06796523013959 
H1    H     0.24670438518964 0.48461791013743 0.67973615233692 
H2    H     0.26314061058909 0.48624870396003 0.44625767941588 
H3    H     0.18350349482054 0.42650576590463 0.23064015618778 
H4    H     0.34183915949642 0.32527627273768 0.14665920344456 
H5    H     0.04609999982528 0.58431380096506 0.18541127801829 
H6    H     0.47913661796053 0.32886558389269 0.96202190595006 
H7    H     0.95735667699949 0.75939642952408 0.02072143793238 
H8    H     0.56658595676347 0.43455798516308 0.71566460712899 
H9    H     0.92615483144381 0.86713666593151 0.79374491346610 
H10   H     0.58061457248056 0.61859611234195 0.48570861096181 
H11   H     0.95682902287377 0.88501516546328 0.55230316430816 
H12   H     0.51430464391611 0.83119052670839 0.32374932695883 
H13   H     0.04707923144576 0.81384942716375 0.36741250032780 
H14   H     0.40162673983084 0.02587366237371 0.27997012908645 
H15   H     0.42499819167278 0.80558554238480 0.86543920676616 
H16   H     0.17205195026268 0.66305728822131 0.28255811399708 
H17   H     0.26337673505910 0.16144702897739 0.36383658411956 
H18   H     0.16601411580415 0.22325679239947 0.54644554317426 
H19   H     0.13201528999088 0.20969578585910 0.78627373334973 
H20   H     0.41277330857789 0.82993927667706 0.09086742695057 
H21   H     0.17987395558333 0.12821357953188 0.00817181202753 
H22   H     0.28289707548721 0.98043560155866 0.16938994968379 
