data_stdin
_audit_creation_method 'critic2'
_audit_creation_date 2023-8-11
_chemical_formula_sum 'C38 H22'
_cell_formula_units_Z 4
_cell_length_a        14.5703554748
_cell_length_b         9.8492146715
_cell_length_c        17.6839785068
_cell_angle_alpha        90.0011
_cell_angle_beta        72.6579
_cell_angle_gamma        89.9999
_cell_volume          2422.405742
_space_group_crystal_system monoclinic
_space_group_IT_number 14
_space_group_name_H-M_alt 'P2_1/c'
_space_group_name_Hall '-P 2ybc'
loop_
_symmetry_equiv_pos_site_id
_symmetry_equiv_pos_as_xyz
 1 'x,y,z'
 2 '-x,-y,-z'
 3 '-x,-1/2+y,-1/2-z'
 4 'x,-1/2-y,-1/2+z'
loop_
_atom_site_label
_atom_site_type_symbol
_atom_site_fract_x
_atom_site_fract_y
_atom_site_fract_z
C1    C     0.83045342549295 0.96102733064031 0.54807621896791 
C2    C     0.85341218210924 0.88296654199412 0.47552734242282 
C3    C     0.79478683104098 0.90544099088273 0.62711790009427 
C4    C     0.80789361947049 0.75596981871107 0.46690743642208 
C5    C     0.81150237934686 0.76705700016730 0.64834109653791 
C6    C     0.71513469723470 0.71276620017344 0.51803194108861 
C7    C     0.88134979125018 0.68029156563210 0.59843194023281 
C8    C     0.63890248981301 0.80234130532083 0.56191247626972 
C9    C     0.84443173760953 0.10409598537227 0.54015039213623 
C10   C     0.92277080037330 0.93668937011432 0.40735266607567 
C11   C     0.74707824290136 0.99494342610480 0.68976911596066 
C12   C     0.85928660883794 0.66662230410414 0.40549164491219 
C13   C     0.76224061566079 0.71793615980696 0.72598906669113 
C14   C     0.69869143864748 0.56994336274240 0.52586645621646 
C15   C     0.62449598359678 0.94038543124343 0.53875414203889 
C16   C     0.89732607587537 0.55028938853516 0.62115215009234 
C17   C     0.56784778797458 0.74772106948415 0.62861395905797 
C18   C     0.90210259389000 0.15981578092595 0.46714327437631 
C19   C     0.94701173511163 0.07694512202767 0.40504459956164 
C20   C     0.80115737976266 0.19096265985996 0.60527386172652 
C21   C     0.96485848528884 0.85033256017565 0.34138418183348 
C22   C     0.74872528688853 0.13769140552393 0.67643815969023 
C23   C     0.93840508874105 0.71688267596179 0.34306278852529 
C24   C     0.70063186439725 0.94295382604671 0.76713157246456 
C25   C     0.83237232610221 0.52732923967353 0.40807447458629 
C26   C     0.70444587706386 0.80823258811570 0.78390235116651 
C27   C     0.75920003282264 0.47894124439997 0.47017330758005 
C28   C     0.55305252513964 0.02384158817764 0.59129708139090 
C29   C     0.77665086893325 0.58241085017320 0.74655332949782 
C30   C     0.62175977487749 0.51830263668409 0.58941105277213 
C31   C     0.67163042357160 0.99422904134346 0.46294926060164 
C32   C     0.84261720648066 0.49903247489282 0.69524505386920 
C33   C     0.56211582527673 0.60502169090349 0.64204400520765 
C34   C     0.49882477098562 0.83469784255061 0.68066011180970 
C35   C     0.49355567686180 0.96920729982947 0.66404659864031 
C36   C     0.65347636036174 0.12379498409993 0.44117996649481 
C37   C     0.53710521208048 0.15733398299339 0.56841051769843 
C38   C     0.58618070427911 0.20744650887824 0.49456380243433 
H1    H     0.92512567201006 0.71818572811943 0.54160800755927 
H2    H     0.95295183380968 0.48753887589922 0.58175008208856 
H3    H     0.91324382395602 0.26919691603164 0.46325943881867 
H4    H     0.99898543545507 0.11776854447109 0.35220364434651 
H5    H     0.80903420461288 0.30030768528956 0.59679008181224 
H6    H     0.02047882414022 0.89197203254966 0.29106674419094 
H7    H     0.71178111464880 0.20397936669537 0.72543815116927 
H8    H     0.97460547841974 0.64778115514164 0.29541911634665 
H9    H     0.66293809515041 0.01392247343982 0.81322716782069 
H10   H     0.87391191792235 0.45946456496139 0.36177675535191 
H11   H     0.66942427340084 0.76983859349717 0.84328148959468 
H12   H     0.74326665390798 0.37078302360140 0.47638527024267 
H13   H     0.73605549776576 0.54611373619557 0.80499235752153 
H14   H     0.61316108642478 0.40873996859930 0.59612110868976 
H15   H     0.72229583942347 0.93076631376189 0.42029809077833 
H16   H     0.85401318714100 0.39573244849445 0.71243862072811 
H17   H     0.50585521490808 0.56582841449959 0.69268545816437 
H18   H     0.44946278848407 0.79022411742808 0.73379576121271 
H19   H     0.43995874971005 0.03451049150070 0.70350158970831 
H20   H     0.69056677385634 0.16060200372560 0.38185256073221 
H21   H     0.48270076950424 0.21885919539780 0.60988339039699 
H22   H     0.57089147692441 0.30890689527259 0.47705663222346 
