data_stdin
_audit_creation_method 'critic2'
_audit_creation_date 2023-8-11
_chemical_formula_sum 'C38 H22'
_cell_formula_units_Z 4
_cell_length_a         9.8304196006
_cell_length_b         7.5826033112
_cell_length_c        31.9482786568
_cell_angle_alpha        89.9895
_cell_angle_beta        89.9995
_cell_angle_gamma        89.9997
_cell_volume          2381.430153
_space_group_crystal_system monoclinic
_space_group_IT_number 4
_space_group_name_H-M_alt 'P2_1'
_space_group_name_Hall 'P 2yb'
loop_
_symmetry_equiv_pos_site_id
_symmetry_equiv_pos_as_xyz
 1 'x,y,z'
 2 '-1/2+x,-1/2-y,-z'
loop_
_atom_site_label
_atom_site_type_symbol
_atom_site_fract_x
_atom_site_fract_y
_atom_site_fract_z
C1    C     0.76869648366973 0.26907986444920 0.34962007086043 
C2    C     0.23131326135932 0.76912516940989 0.15036596103259 
C3    C     0.85101934039538 0.20412646532500 0.31536640490124 
C4    C     0.14899583984655 0.70416641603402 0.18462516093028 
C5    C     0.81962727114397 0.31997864718515 0.39034519065710 
C6    C     0.18037354820240 0.82002001278027 0.10963811285184 
C7    C     0.98246627906611 0.11973770180751 0.32028472706577 
C8    C     0.01754781420011 0.61978237018625 0.17971390804563 
C9    C     0.95566315312064 0.38613703156605 0.39813026791863 
C10   C     0.04433248290744 0.88617183555669 0.10185188349496 
C11   C     0.02869275993054 0.03230114276409 0.35791314565058 
C12   C     0.97131696311134 0.53234368409718 0.14209357090146 
C13   C     0.04214091780091 0.44928778677554 0.36600735646740 
C14   C     0.95788398407331 0.94935394823769 0.13397295092852 
C15   C     0.94136280561581 0.95154132293218 0.38883697910035 
C16   C     0.05864087910147 0.45156427784256 0.11117747934424 
C17   C     0.62564113416315 0.28264649007252 0.34278714682398 
C18   C     0.37436851494965 0.78269709257156 0.15719523601635 
C19   C     0.79824102565597 0.21804666916974 0.27395204980050 
C20   C     0.20178111188158 0.71807196462078 0.22603753996998 
C21   C     0.72767530982739 0.31674288931996 0.42468689781018 
C22   C     0.27231235512858 0.81678788190897 0.07529421860234 
C23   C     0.07285323734441 0.12429294311843 0.28550356351734 
C24   C     0.92716522402662 0.62433721021325 0.21449580217985 
C25   C     0.00272644322306 0.40220660823990 0.44033592125390 
C26   C     0.99723986581606 0.90220114204358 0.05964692597706 
C27   C     0.17200923887040 0.02318030523172 0.36461439117885 
C28   C     0.82799791565403 0.52322731292070 0.13539527160970 
C29   C     0.80670833779324 0.88261611559114 0.37999947276097 
C30   C     0.19330149097960 0.38264750686135 0.12001925437277 
C31   C     0.17201138660207 0.50889565313017 0.37457410507360 
C32   C     0.82800578380903 0.00893169862756 0.12540498447137 
C33   C     0.99478514841338 0.92428952166528 0.42968444453405 
C34   C     0.00520504401089 0.42426857004655 0.07033526695063 
C35   C     0.57302850624886 0.27886891923463 0.30126159690748 
C36   C     0.42698721638998 0.77891562472213 0.19872064600018 
C37   C     0.65822028407260 0.25834256229439 0.26774621765451 
C38   C     0.34180196644700 0.75837152978484 0.23223858279261 
C39   C     0.53564894720315 0.29846371374960 0.37748942104536 
C40   C     0.46435200634735 0.79852405247045 0.12248951847850 
C41   C     0.88560061712928 0.19091418060498 0.23886265623536 
C42   C     0.11442695613564 0.69092512991807 0.26112995577072 
C43   C     0.58536002098546 0.30079740092921 0.41742779826173 
C44   C     0.41463190814563 0.80085962472362 0.08255181413821 
C45   C     0.02095452331777 0.15871195679969 0.24467469282085 
C46   C     0.97907095343575 0.65873729169336 0.25532143743474 
C47   C     0.77709687717894 0.33714304503271 0.46642166828946 
C48   C     0.22286801649554 0.83716448002175 0.03355958164017 
C49   C     0.21378698791085 0.09047632046811 0.29158731324962 
C50   C     0.78622994899045 0.59053499988069 0.20841644361460 
C51   C     0.91118085040715 0.37042125171496 0.47413997193375 
C52   C     0.08877426700126 0.87040865556914 0.02584278561011 
C53   C     0.26300556974535 0.05367761696795 0.33069497742924 
C54   C     0.73700623140580 0.55374115653724 0.16931230426573 
C55   C     0.72141968918997 0.82913684553082 0.41397358795052 
C56   C     0.27857603600295 0.32913238045417 0.08604938014898 
C57   C     0.13755272995345 0.45851185633906 0.44817930984503 
C58   C     0.86240124985824 0.95848405975216 0.05180753206499 
C59   C     0.22352112836116 0.98309140488905 0.40515363728271 
C60   C     0.77647555723916 0.48310416597617 0.09486302125737 
C61   C     0.75832577754569 0.85073982381663 0.33895278843843 
C62   C     0.24170380284014 0.35080729654676 0.16106806129632 
C63   C     0.22209498938130 0.50884681397126 0.41585316673932 
C64   C     0.77788613935978 0.00885280503696 0.08413441268222 
C65   C     0.13632750749232 0.94712477193051 0.43735799808831 
C66   C     0.86366065524736 0.44709397162092 0.06266212421190 
C67   C     0.90756057352380 0.86719872043810 0.46273575180430 
C68   C     0.09241481788161 0.36713450162365 0.03728921623643 
C69   C     0.77407414854169 0.82847214081222 0.45555002958722 
C70   C     0.22590472473681 0.32841756199788 0.04447500312505 
C71   C     0.62957292434817 0.78441561844650 0.33163786088975 
C72   C     0.37045881833331 0.28448424747224 0.16838686562230 
C73   C     0.58828243621352 0.76750095920522 0.40573053045546 
C74   C     0.41171636892256 0.26749570167157 0.09429535002686 
C75   C     0.54171218419454 0.74711535499840 0.36526997751793 
C76   C     0.45830472290754 0.24714406104084 0.13475638423816 
H1    H     0.00540199803600 0.45260108196118 0.33399246435441 
H2    H     0.99465003556641 0.95269117189746 0.16598462826857 
H3    H     0.23549664563341 0.55636339059916 0.34902036215550 
H4    H     0.76454968084770 0.05644493843698 0.15096128857202 
H5    H     0.46416739766289 0.29813381739111 0.29679007274616 
H6    H     0.53584752205177 0.79819175936099 0.20318898743674 
H7    H     0.62002308662372 0.26671147351286 0.23579605638021 
H8    H     0.38000402358229 0.76673062563881 0.26418775553247 
H9    H     0.42661564821555 0.30411244825804 0.37168704195532 
H10   H     0.57338615506398 0.80417561760413 0.12829007827325 
H11   H     0.84397509424675 0.20679343118791 0.20752506551632 
H12   H     0.15605783034214 0.70678647079708 0.29246595961545 
H13   H     0.51653449173719 0.30333033860765 0.44416150496664 
H14   H     0.48345094445428 0.80340259526206 0.05581639707026 
H15   H     0.09036501365927 0.15052129633790 0.21820764576488 
H16   H     0.90966440648807 0.65054433221542 0.28179013245539 
H17   H     0.70498489402648 0.32508725278495 0.49214009651276 
H18   H     0.29497004341145 0.82511245598677 0.00783932670153 
H19   H     0.28129663651999 0.09750082873478 0.26459841884112 
H20   H     0.71872167030202 0.59755811324079 0.23540497553260 
H21   H     0.94846126805529 0.38403446307711 0.50610597826776 
H22   H     0.05148258588184 0.88399200668914 0.99387623993391 
H23   H     0.37165640952468 0.03791554952198 0.33617536426544 
H24   H     0.62835433943255 0.53798647409210 0.16383469587510 
H25   H     0.17277917391926 0.46477319624830 0.48045998383110 
H26   H     0.82713525642661 0.96470608529216 0.01953037798888 
H27   H     0.33328130765183 0.98496437135968 0.40988970561304 
H28   H     0.66671420698222 0.48497072040573 0.09012878244504 
H29   H     0.82451628135585 0.87683407297238 0.31253698567518 
H30   H     0.17552896848912 0.37692547291049 0.18748402155913 
H31   H     0.32536174289319 0.55286140027936 0.42232753436321 
H32   H     0.67461244420205 0.05285562942163 0.07766135340629 
H33   H     0.17483152796244 0.92449625701020 0.46885512894145 
H34   H     0.82514820387023 0.42441751705171 0.03116982226260 
H35   H     0.95064696413432 0.85456153475300 0.49403557369479 
H36   H     0.04931187653197 0.35444733888638 0.00599382008304 
H37   H     0.70778371240236 0.78698843372340 0.48101655005620 
H38   H     0.29218424006711 0.28689573331031 0.01901253108781 
H39   H     0.59685833912440 0.75981437939139 0.29959402111291 
H40   H     0.40318355328076 0.25991693044131 0.20043317814545 
H41   H     0.52433569532439 0.73072712906682 0.43221344535762 
H42   H     0.47564556353242 0.23069149406814 0.06781378224819 
H43   H     0.43957597491433 0.69757845144593 0.35945477972637 
H44   H     0.56044158301245 0.19760201299600 0.14057386157476 
