data_stdin
_audit_creation_method 'critic2'
_audit_creation_date 2023-8-11
_chemical_formula_sum 'C38 H22'
_cell_formula_units_Z 2
_cell_length_a         7.7612570921
_cell_length_b         8.8686919403
_cell_length_c        18.6212498323
_cell_angle_alpha        75.1891
_cell_angle_beta        89.4932
_cell_angle_gamma        76.0210
_cell_volume          1200.543570
_space_group_crystal_system triclinic
_space_group_IT_number 2
_space_group_name_H-M_alt 'P-1'
_space_group_name_Hall '-P 1'
loop_
_symmetry_equiv_pos_site_id
_symmetry_equiv_pos_as_xyz
 1 'x,y,z'
 2 '-x,-y,-z'
loop_
_atom_site_label
_atom_site_type_symbol
_atom_site_fract_x
_atom_site_fract_y
_atom_site_fract_z
C1    C     0.92036827334786 0.66448210346637 0.72026230170860 
C2    C     0.93016668286923 0.50107873226950 0.76254640170092 
C3    C     0.82665410990497 0.80735467078392 0.74121507733784 
C4    C     0.79551041970614 0.45351828371000 0.81135060134577 
C5    C     0.79187897669839 0.81432405008327 0.81723817897090 
C6    C     0.61204054968740 0.54456868104740 0.80600827790777 
C7    C     0.88056279189147 0.69444493244812 0.88044430328779 
C8    C     0.51956022048123 0.65857557975751 0.73956314841794 
C9    C     0.00904378281709 0.68485393325912 0.65241911992956 
C10   C     0.07810987322669 0.37772133536153 0.75343422412559 
C11   C     0.77673368590791 0.95397296990148 0.68432500641474 
C12   C     0.84918995144650 0.30830301666198 0.86912503887425 
C13   C     0.67519627795038 0.95543011296634 0.83023623645462 
C14   C     0.51481284234374 0.52015643022745 0.87157340960561 
C15   C     0.56114333085585 0.65121044072442 0.66429795035608 
C16   C     0.84630915219355 0.70728827873150 0.95195270359766 
C17   C     0.36788254219357 0.77849071861101 0.74822385301668 
C18   C     0.14149460794115 0.55416930654560 0.63922618250469 
C19   C     0.18437241392432 0.40860660461852 0.69114168916800 
C20   C     0.96492918174526 0.83604366779926 0.59832794067385 
C21   C     0.11600040040868 0.22364403124837 0.80602079564733 
C22   C     0.84342553666972 0.96362303462202 0.61220946271456 
C23   C     0.01176363884210 0.19463622483745 0.86510837551501 
C24   C     0.66445735208891 0.09398509347251 0.69970065231969 
C25   C     0.73977379243407 0.27767151606095 0.93018167126876 
C26   C     0.60968600578576 0.09336090330860 0.76957241721198 
C27   C     0.58256256995916 0.38564105581132 0.93329457579820 
C28   C     0.48025060076881 0.78435781614416 0.60332177994319 
C29   C     0.63483219979826 0.96156423123769 0.90383147637333 
C30   C     0.35087528824907 0.63134673598856 0.87574955161427 
C31   C     0.66687618368599 0.51202537694939 0.64713772859730 
C32   C     0.71811542393494 0.83940206102107 0.96411419673909 
C33   C     0.28719515715876 0.76365699328458 0.81781569122456 
C34   C     0.29035491080206 0.90989420227146 0.68631726257187 
C35   C     0.35045183695836 0.91708719603276 0.61675567179632 
C36   C     0.70248880490429 0.50810078252801 0.57466105493206 
C37   C     0.52194633115250 0.77874844504393 0.52971627544412 
C38   C     0.63298887889174 0.64405220509051 0.51524437152129 
H1    H     0.98164556685951 0.59275012910133 0.87232674242302 
H2    H     0.92011726716246 0.61598648361577 0.99942575761028 
H3    H     0.21381110824052 0.57561059508743 0.58872895794312 
H4    H     0.29446424505702 0.31173693847894 0.68409849399988 
H5    H     0.02844944280754 0.84660130442245 0.54548368069635 
H6    H     0.23241502570014 0.13194794226713 0.79944119973342 
H7    H     0.80368410617971 0.07795338514640 0.57000297850383 
H8    H     0.04568498314645 0.08112145114217 0.90812110461353 
H9    H     0.62382963802315 0.20218594686249 0.65394323532305 
H10   H     0.78605146915126 0.16886105889508 0.97514413468669 
H11   H     0.52461450650493 0.20079322705854 0.78108629896494 
H12   H     0.50337473256594 0.36713589263224 0.98184827074034 
H13   H     0.54207732546536 0.06882846633247 0.91176626463884 
H14   H     0.28079618117612 0.61146613673520 0.92688366141980 
H15   H     0.71956079801878 0.40501996749330 0.69191892174127 
H16   H     0.69000170239810 0.84681102895360 0.02065326899622 
H17   H     0.16680616782088 0.85350657178914 0.82214080067269 
H18   H     0.17878417565792 0.00298078347769 0.69566786207337 
H19   H     0.29160869630202 0.01838863290030 0.56981863183439 
H20   H     0.78498731058461 0.39902939837119 0.56368125418932 
H21   H     0.46213630979465 0.88284825168023 0.48427438472134 
H22   H     0.66335745563513 0.64204907326264 0.45827368510137 
