data_stdin
_audit_creation_method 'critic2'
_audit_creation_date 2023-8-11
_chemical_formula_sum 'C38 H22'
_cell_formula_units_Z 4
_cell_length_a         9.7153116697
_cell_length_b        16.9113354000
_cell_length_c        15.2506664833
_cell_angle_alpha        90.0002
_cell_angle_beta        78.5840
_cell_angle_gamma        90.0005
_cell_volume          2456.095302
_space_group_crystal_system monoclinic
_space_group_IT_number 14
_space_group_name_H-M_alt 'P2_1/c'
_space_group_name_Hall '-P 2ybc'
loop_
_symmetry_equiv_pos_site_id
_symmetry_equiv_pos_as_xyz
 1 'x,y,z'
 2 '-x,-y,-z'
 3 '-x,-1/2+y,-1/2-z'
 4 'x,-1/2-y,-1/2+z'
loop_
_atom_site_label
_atom_site_type_symbol
_atom_site_fract_x
_atom_site_fract_y
_atom_site_fract_z
C1    C     0.87692186359346 0.27464678388363 0.85439185624047 
C2    C     0.78857120928117 0.34267537081388 0.88051753140582 
C3    C     0.82653952073492 0.19739331714631 0.83568493621168 
C4    C     0.64367160091049 0.33784215073815 0.92652261164871 
C5    C     0.69833612534333 0.18365139519354 0.80267693643188 
C6    C     0.58273956045264 0.26996099643693 0.97739683446848 
C7    C     0.62575077058658 0.24419374421364 0.76635401343630 
C8    C     0.65960834273757 0.21389953558702 0.02057884047150 
C9    C     0.02438167513136 0.28494215256515 0.84630948553543 
C10   C     0.84860280561578 0.41914299766971 0.86226601110501 
C11   C     0.91388265413284 0.13125691309673 0.84293498799554 
C12   C     0.55499308039872 0.40340757000729 0.91917738785491 
C13   C     0.64879361588245 0.10437297869874 0.79807334969612 
C14   C     0.43567108213714 0.25789782346235 0.98532630207080 
C15   C     0.78610877208968 0.23313886334651 0.05311706777419 
C16   C     0.50564867870176 0.22861653673099 0.73365174943557 
C17   C     0.60077064019349 0.13736605616061 0.03970718092817 
C18   C     0.08229189247990 0.36262312949746 0.83908917493575 
C19   C     0.99739364479677 0.42739329922814 0.84031678655566 
C20   C     0.11253829221153 0.21752427678057 0.84509838385429 
C21   C     0.75887980176124 0.48650817019610 0.86810180719461 
C22   C     0.05631551582435 0.14308449456464 0.85049050806107 
C23   C     0.61609368033078 0.47787943190248 0.88982688633457 
C24   C     0.86071964038875 0.05301531381702 0.83828109016818 
C25   C     0.40642918162582 0.39377806620793 0.94109825241514 
C26   C     0.73071891971799 0.03994911655396 0.81985817617153 
C27   C     0.34924799248963 0.32139125823121 0.96673490649724 
C28   C     0.86343083797054 0.17098792407733 0.08486160072213 
C29   C     0.52356816717832 0.09004799515642 0.76646219251738 
C30   C     0.37663510690134 0.18223788934285 0.01104166826411 
C31   C     0.82984906139944 0.31177872645872 0.06408861509742 
C32   C     0.45204107617224 0.15117586177296 0.73533144485040 
C33   C     0.45993421317463 0.12212835689261 0.03071105642175 
C34   C     0.68049349031953 0.07667825570503 0.07177395194045 
C35   C     0.80983386251548 0.09218945316883 0.08998473834388 
C36   C     0.94934868171000 0.32803441836114 0.09708836092491 
C37   C     0.98657578795041 0.18907613475518 0.11724071528244 
C38   C     0.03055838403123 0.26626497782386 0.12224457966156 
H1    H     0.66792534583074 0.30376954085369 0.76087917312335 
H2    H     0.45443236912995 0.27628173381187 0.70429053161321 
H3    H     0.19589391707441 0.36906084115338 0.82920919106660 
H4    H     0.04235974966392 0.48624460041508 0.82767131960326 
H5    H     0.22434208411785 0.22637535875615 0.84223402113429 
H6    H     0.80617294950521 0.54458286372922 0.85265207448965 
H7    H     0.12204256254815 0.09161130953636 0.85507602564538 
H8    H     0.54681507292906 0.52836742200106 0.88942936403860 
H9    H     0.92727297556811 0.00353479271488 0.84888320244673 
H10   H     0.33990300037432 0.44432491430778 0.93411233919623 
H11   H     0.69122210449277 0.97995528442641 0.81626337171137 
H12   H     0.23632861825396 0.31195340509454 0.97710359570303 
H13   H     0.48669668367717 0.02929260536513 0.76471864714429 
H14   H     0.26540874704121 0.17291552133295 0.01194721853020 
H15   H     0.76579361765596 0.36054106328160 0.04899925732056 
H16   H     0.35694456739899 0.13947960258970 0.70986001030554 
H17   H     0.41755753736168 0.06282677732624 0.04490065489613 
H18   H     0.63527374659937 0.01759086813588 0.08175306067086 
H19   H     0.87065746553231 0.04551776651204 0.11358957807797 
H20   H     0.97898738855249 0.38927841936138 0.10516199392798 
H21   H     0.04341269596070 0.14105156987382 0.14185836137230 
H22   H     0.12394808466226 0.27931150188112 0.14899898501263 
