data_stdin
_audit_creation_method 'critic2'
_audit_creation_date 2023-8-11
_chemical_formula_sum 'C38 H22'
_cell_formula_units_Z 2
_cell_length_a        10.1284430384
_cell_length_b        15.7105562755
_cell_length_c        10.5745720205
_cell_angle_alpha       131.1303
_cell_angle_beta        68.8910
_cell_angle_gamma       110.2483
_cell_volume          1167.997735
_space_group_crystal_system triclinic
_space_group_IT_number 2
_space_group_name_H-M_alt 'P-1'
_space_group_name_Hall '-P 1'
loop_
_symmetry_equiv_pos_site_id
_symmetry_equiv_pos_as_xyz
 1 'x,y,z'
 2 '-x,-y,-z'
loop_
_atom_site_label
_atom_site_type_symbol
_atom_site_fract_x
_atom_site_fract_y
_atom_site_fract_z
C1    C     0.86134226707138 0.86566114916860 0.01252071378137 
C2    C     0.76041004514075 0.93443489455562 0.16525687286445 
C3    C     0.82910452172132 0.77691278083452 0.84246654487156 
C4    C     0.60667891171256 0.89926971981133 0.19057334565669 
C5    C     0.71013018567830 0.76804490993650 0.78651418185658 
C6    C     0.53580043051750 0.78160073534863 0.10195757073536 
C7    C     0.63592938777282 0.86008359630828 0.87341010477414 
C8    C     0.60062080766892 0.68480009545108 0.02609861766677 
C9    C     0.00447866715688 0.88856917182954 0.03293201603644 
C10   C     0.81619499420640 0.04451075475099 0.30292947658804 
C11   C     0.92597576889947 0.69690159723065 0.71605576680530 
C12   C     0.51959491035398 0.98743409604448 0.30799877608158 
C13   C     0.67138273532456 0.66478102679521 0.62830548835186 
C14   C     0.39135997693843 0.75974499895878 0.08604836135690 
C15   C     0.71821354685304 0.69098528693931 0.08104296141365 
C16   C     0.52182965564794 0.84766374056960 0.81732986851637 
C17   C     0.53826034506582 0.57377698096178 0.89788230750483 
C18   C     0.05174203595933 0.99045702967166 0.18563630930693 
C19   C     0.96376806518762 0.07083166633138 0.30986043684126 
C20   C     0.10181198435798 0.81062063828179 0.89968612167622 
C21   C     0.72339547237329 0.12717409320133 0.43456488362734 
C22   C     0.06096507343275 0.71442455881193 0.74914733488053 
C23   C     0.58144559718410 0.10195615135675 0.42885502646068 
C24   C     0.89023505561973 0.59928628530505 0.55301864342677 
C25   C     0.37151750135269 0.96104347909196 0.30262112319575 
C26   C     0.76278254823121 0.57941520319268 0.51452098820215 
C27   C     0.31204229278984 0.85155984733854 0.18614183095809 
C28   C     0.79120567415477 0.59459484583844 0.97626129848638 
C29   C     0.54841015794118 0.65165822313451 0.57955827327342 
C30   C     0.32608544023437 0.64593157984753 0.96946973135923 
C31   C     0.75666020972154 0.78447651856042 0.24235142839761 
C32   C     0.47342509561714 0.74117419275762 0.67305543317578 
C33   C     0.40022988926559 0.55651936229813 0.87166011603804 
C34   C     0.61210697698520 0.47838458019998 0.79757069870676 
C35   C     0.73945126006063 0.49012660775737 0.82812892100544 
C36   C     0.86471577939497 0.78579092382098 0.29472638957226 
C37   C     0.90590848076426 0.59999497959688 0.02891419546543 
C38   C     0.94227641237346 0.69355404439424 0.18591080243897 
H1    H     0.67173859404268 0.94282663550360 0.98492436561598 
H2    H     0.46942304454429 0.92070407272330 0.88429238943645 
H3    H     0.16211508833760 0.00639290781986 0.19616227559891 
H4    H     0.00395096528182 0.15459502714009 0.41766933217881 
H5    H     0.20857793064767 0.82835701313071 0.92146192610096 
H6    H     0.76914400990967 0.21164043638347 0.53600864535928 
H7    H     0.13322647486319 0.65219828729215 0.64921467777536 
H8    H     0.51201104357422 0.16712464653575 0.52074949414391 
H9    H     0.96711731037863 0.53999716096050 0.46010888934767 
H10   H     0.30864279784678 0.03059497452826 0.38758114689936 
H11   H     0.73281350813660 0.50198599252395 0.39339513784452 
H12   H     0.20162126978886 0.83212109196977 0.17258829882697 
H13   H     0.51613335078614 0.56984061859446 0.46400255063888 
H14   H     0.21698971759755 0.63231293426869 0.95723622484324 
H15   H     0.69850567231853 0.85645004558095 0.32782286165116 
H16   H     0.38067846012395 0.73124156685420 0.63300053066740 
H17   H     0.35141028357240 0.46977516021734 0.77962465302165 
H18   H     0.56343444848096 0.39569269539405 0.69605160099678 
H19   H     0.79711297088495 0.41788332805318 0.74918239264457 
H20   H     0.89028791815476 0.85880446559995 0.42045730680644 
H21   H     0.96159116692105 0.52618291987355 0.94447517939499 
H22   H     0.02833079417247 0.69543105981444 0.22697726407253 
