data_stdin
_audit_creation_method 'critic2'
_audit_creation_date 2023-8-11
_chemical_formula_sum 'C38 H22'
_cell_formula_units_Z 2
_cell_length_a        11.8467392709
_cell_length_b        10.1380471197
_cell_length_c        10.5657084776
_cell_angle_alpha        68.8468
_cell_angle_beta        91.3140
_cell_angle_gamma        82.1961
_cell_volume          1168.947787
_space_group_crystal_system triclinic
_space_group_IT_number 2
_space_group_name_H-M_alt 'P-1'
_space_group_name_Hall '-P 1'
loop_
_symmetry_equiv_pos_site_id
_symmetry_equiv_pos_as_xyz
 1 'x,y,z'
 2 '-x,-y,-z'
loop_
_atom_site_label
_atom_site_type_symbol
_atom_site_fract_x
_atom_site_fract_y
_atom_site_fract_z
C1    C     0.13501682573799 0.36049522589196 0.64672375881117 
C2    C     0.06633977069324 0.25961644478753 0.73090196986571 
C3    C     0.22352033638785 0.32821475167751 0.56553141229046 
C4    C     0.10148003973971 0.10605274831021 0.79164841550370 
C5    C     0.23217221243689 0.20932455793035 0.51853645082015 
C6    C     0.21906874418222 0.03542257448595 0.82076927103593 
C7    C     0.14009100380860 0.13526545867659 0.51327320057444 
C8    C     0.31579239710588 0.10041350996296 0.84159280098127 
C9    C     0.11217348135827 0.50356792275284 0.64383893682272 
C10   C     0.95643604851732 0.31529859774416 0.75824035356355 
C11   C     0.30349141496069 0.42503238434724 0.51902615303549 
C12   C     0.01342946842559 0.01889476300628 0.82093979349157 
C13   C     0.33523101379585 0.17058889983121 0.46372655661878 
C14   C     0.24085256709302 0.89118336863233 0.82666449994652 
C15   C     0.30977525226826 0.21798621352462 0.89020475696535 
C16   C     0.15224258039515 0.02135672412715 0.46953014853362 
C17   C     0.42662257138241 0.03836964481448 0.82429178503198 
C18   C     0.01035273387080 0.55084913333450 0.69431197104901 
C19   C     0.93010641236087 0.46284966618280 0.73833620639597 
C20   C     0.18997408358250 0.60090686480598 0.58830597098587 
C21   C     0.87390597410244 0.22245979829918 0.80737920510664 
C22   C     0.28601342295482 0.56004585376235 0.53417056934834 
C23   C     0.89908514589378 0.08059444915191 0.82715810957105 
C24   C     0.40100428350413 0.38917043507571 0.45392894662559 
C25   C     0.03977721659674 0.87098478173158 0.84193556623293 
C26   C     0.42067352368078 0.26179702613758 0.43548599854695 
C27   C     0.14910491050417 0.81179178784566 0.83488476680031 
C28   C     0.40595617721382 0.29137282710807 0.88123039886793 
C29   C     0.34807290056328 0.04783263584666 0.42803483278210 
C30   C     0.35450546238396 0.82620964560741 0.82386829742807 
C31   C     0.21674540941479 0.25595040967523 0.95849956295480 
C32   C     0.25850428006418 0.97300634498501 0.43184175948442 
C33   C     0.44381622177468 0.90048504964231 0.81539922001495 
C34   C     0.52186415944964 0.11248345107640 0.81902164433967 
C35   C     0.51014450275533 0.23989711644495 0.83738874810035 
C36   C     0.21575342455669 0.36373829455072 0.00974112772402 
C37   C     0.40070305754427 0.40607322930404 0.92829079501640 
C38   C     0.30768873543766 0.44176423879004 0.99245707291685 
H1    H     0.05752322918460 0.17097089047815 0.54206526388691 
H2    H     0.07917483238666 0.96907678518770 0.46327061393874 
H3    H     0.99446538789802 0.66123812894962 0.68846227676840 
H4    H     0.84642544345871 0.50298645286590 0.76209752567807 
H5    H     0.17229287328230 0.70770134527193 0.59194629958969 
H6    H     0.78955972729887 0.26806063668067 0.82425828572711 
H7    H     0.34812020721123 0.63234249286257 0.49623324500661 
H8    H     0.83394779911956 0.01119745760172 0.85393628515398 
H9    H     0.46037136418057 0.46590066214273 0.42042754931270 
H10   H     0.97032526666066 0.80800563861323 0.85734221519947 
H11   H     0.49800298731262 0.23172519325538 0.39204254574669 
H12   H     0.16853688652396 0.70155646200056 0.84062798490897 
H13   H     0.42970736212213 0.01558860745746 0.39434441149887 
H14   H     0.36814921153122 0.71723908325464 0.82526925032655 
H15   H     0.14490589374366 0.19760672164534 0.97230360079996 
H16   H     0.26826813283308 0.88043113759299 0.40163668856406 
H17   H     0.53043248144520 0.85188042673756 0.81007566895678 
H18   H     0.60440527742075 0.06395794391810 0.80023463998643 
H19   H     0.58226664360041 0.29777570071259 0.83028603661840 
H20   H     0.14330594963479 0.38877042953780 0.06318218534271 
H21   H     0.47421964896536 0.46227830798698 0.91705356280605 
H22   H     0.30606707140244 0.52768607931450 0.03166814023095 
