data_stdin
_audit_creation_method 'critic2'
_audit_creation_date 2023-8-11
_chemical_formula_sum 'C38 H22'
_cell_formula_units_Z 4
_cell_length_a         9.8328035200
_cell_length_b        15.6137740700
_cell_length_c        16.2060492100
_cell_angle_alpha        90.0000
_cell_angle_beta        89.9998
_cell_angle_gamma        90.0000
_cell_volume          2488.068915
_space_group_crystal_system orthorhombic
_space_group_IT_number 19
_space_group_name_H-M_alt 'P2_12_12_1'
_space_group_name_Hall 'P 2ac 2ab'
loop_
_symmetry_equiv_pos_site_id
_symmetry_equiv_pos_as_xyz
 1 'x,y,z'
 2 '-1/2-x,-y,-1/2+z'
 3 '-1/2+x,-1/2-y,-z'
 4 '-x,-1/2+y,-1/2-z'
loop_
_atom_site_label
_atom_site_type_symbol
_atom_site_fract_x
_atom_site_fract_y
_atom_site_fract_z
C1    C     0.02689238816735 0.51109902813986 0.35124736212292 
C2    C     0.94618207724889 0.58817427639162 0.34420195553454 
C3    C     0.97310409164236 0.42706620715270 0.36919165021184 
C4    C     0.81528234129306 0.60063723726350 0.38338208379654 
C5    C     0.83624613349586 0.39955058355041 0.34870557767148 
C6    C     0.76970061895632 0.55512061087373 0.45605744579027 
C7    C     0.75423351773040 0.44164599507566 0.28932454973742 
C8    C     0.85791342332273 0.51844703332158 0.51803933843027 
C9    C     0.17023236729736 0.51903160396430 0.34056970111619 
C10   C     0.00098524405741 0.65811995046358 0.29865421775547 
C11   C     0.06275874743692 0.36483075670878 0.40299560167405 
C12   C     0.72585016907214 0.66221985195013 0.34797807263982 
C13   C     0.78545768668146 0.32156443561850 0.38333911936036 
C14   C     0.62653221087092 0.54716017253609 0.46778735434325 
C15   C     0.99410924257086 0.54917080869050 0.53619669096429 
C16   C     0.62514101221788 0.41265529537588 0.27020877581986 
C17   C     0.80397495057750 0.45293231585759 0.56951393590369 
C18   C     0.22548645807938 0.59493352702572 0.30525681202358 
C19   C     0.14233767743733 0.65992284363637 0.27957021231715 
C20   C     0.25806137649456 0.45140417978892 0.36574340201324 
C21   C     0.91472935254188 0.72715608052437 0.27452626215768 
C22   C     0.20585972494135 0.37911181579320 0.40134310514503 
C23   C     0.77902910095350 0.72531582146842 0.29302818820470 
C24   C     0.00996715932076 0.28612192458403 0.43451570050251 
C25   C     0.58546230073347 0.66174491473012 0.36969172797232 
C26   C     0.87473531693265 0.26718544598836 0.42897382744805 
C27   C     0.53610098840193 0.60142926796856 0.42317443199601 
C28   C     0.08018200261377 0.49952497472078 0.58897644560480 
C29   C     0.65054330100051 0.29549651181146 0.36596853594986 
C30   C     0.57464951776455 0.48619854702835 0.52514863139350 
C31   C     0.04329314487921 0.63013504178474 0.51031905835404 
C32   C     0.57098070195866 0.34055018246199 0.31082115539558 
C33   C     0.66140667252052 0.43657456548638 0.57062593950413 
C34   C     0.89201157803013 0.40541881620831 0.62259312317765 
C35   C     0.02686532459877 0.42521859659422 0.62879733041217 
C36   C     0.17363680214193 0.65719403514804 0.52888268081756 
C37   C     0.21394047015548 0.52796606764270 0.60641540850612 
C38   C     0.26112942229143 0.60508012921150 0.57599364924561 
H1    H     0.79477008153258 0.49648754324797 0.25626086472575 
H2    H     0.56597860055500 0.44556213840956 0.22320070302076 
H3    H     0.33517904454454 0.59863252136144 0.29706201674846 
H4    H     0.18333105755812 0.71564061122441 0.24773750274647 
H5    H     0.36739896086085 0.45945276371873 0.35829910437262 
H6    H     0.95801179832200 0.77975082070360 0.23916875573020 
H7    H     0.27294218041395 0.32904045349612 0.42446876338580 
H8    H     0.71154690453500 0.77553708468688 0.27074379548877 
H9    H     0.08035879838835 0.24095811137631 0.46274077719962 
H10   H     0.51816517101145 0.70906425995302 0.34177297334592 
H11   H     0.83509378939876 0.20720198525412 0.45348404367185 
H12   H     0.42769146766022 0.59700251020143 0.43617760438842 
H13   H     0.61191422220326 0.23756749192607 0.39506741248017 
H14   H     0.46481973931280 0.47905585538877 0.53059689432696 
H15   H     0.97648638218546 0.67296042540855 0.47655116529961 
H16   H     0.46795737441800 0.31925073114804 0.29724889389656 
H17   H     0.62260913925714 0.38740955707297 0.61217168920550 
H18   H     0.84821217357769 0.35340701828776 0.65873122354370 
H19   H     0.09408044892178 0.38825543331050 0.66845920732967 
H20   H     0.20739276156469 0.72001054271450 0.50816676288645 
H21   H     0.27758401418695 0.48900361701118 0.64674596116436 
H22   H     0.36342735287315 0.62686652354435 0.59082572730417 
