data_stdin
_audit_creation_method 'critic2'
_audit_creation_date 2023-8-11
_chemical_formula_sum 'C38 H22'
_cell_formula_units_Z 2
_cell_length_a        10.5243418405
_cell_length_b        14.8699676677
_cell_length_c         7.8641983815
_cell_angle_alpha        88.8632
_cell_angle_beta       103.2103
_cell_angle_gamma        96.9931
_cell_volume          1189.199069
_space_group_crystal_system triclinic
_space_group_IT_number 2
_space_group_name_H-M_alt 'P-1'
_space_group_name_Hall '-P 1'
loop_
_symmetry_equiv_pos_site_id
_symmetry_equiv_pos_as_xyz
 1 'x,y,z'
 2 '-x,-y,-z'
loop_
_atom_site_label
_atom_site_type_symbol
_atom_site_fract_x
_atom_site_fract_y
_atom_site_fract_z
C1    C     0.32508943078328 0.73474203735232 0.89809089828365 
C2    C     0.25667979302774 0.64379772054284 0.87130976710958 
C3    C     0.26686635483465 0.81728952350283 0.84678833916960 
C4    C     0.13964837136320 0.61807126154302 0.73624901107789 
C5    C     0.12894887182339 0.82736504684222 0.82994810655594 
C6    C     0.09992803283167 0.66824796156476 0.57725669162013 
C7    C     0.04185949150578 0.76461442694160 0.89906349418126 
C8    C     0.18803795773730 0.72502066360056 0.49224374668294 
C9    C     0.46165553790384 0.74327585243549 0.98084073341979 
C10   C     0.30979445097844 0.57388048774135 0.98186625228754 
C11   C     0.35205461529516 0.89621825638748 0.82363093280159 
C12   C     0.05650891691823 0.53874231414637 0.76341856072097 
C13   C     0.07903009914196 0.90785469185974 0.75331872779350 
C14   C     0.96294534458350 0.65983230713715 0.49777640199149 
C15   C     0.32559483432757 0.71417662202169 0.50934986046340 
C16   C     0.91101991810808 0.77626117839832 0.88026535851411 
C17   C     0.13505281715177 0.79187257356319 0.37410356693047 
C18   C     0.51725556687802 0.66877091600700 0.07246865772638 
C19   C     0.44091546745350 0.58877215545235 0.08411084795288 
C20   C     0.54275308101367 0.82611342777644 0.97088244738077 
C21   C     0.23246218614785 0.48851787858307 0.98671851230153 
C22   C     0.49076131876423 0.89814188025159 0.88264929335946 
C23   C     0.10604372339798 0.47422801295285 0.89004816972095 
C24   C     0.29886888202162 0.97542273756938 0.74735146335759 
C25   C     0.92450647776040 0.52412757654654 0.66395291159929 
C26   C     0.16671690802699 0.97994423818518 0.70630553801271 
C27   C     0.87693066489311 0.58678958827167 0.54434255486326 
C28   C     0.40914551598448 0.78439918591782 0.44777630359063 
C29   C     0.94430957445441 0.91763693555479 0.73331771102077 
C30   C     0.91343958982254 0.72384363486492 0.37053611204032 
C31   C     0.38078669186228 0.63427848926554 0.57242641247652 
C32   C     0.86043547933050 0.85243602082081 0.79336473892060 
C33   C     0.99640913866477 0.79170566967174 0.31963188191787 
C34   C     0.22014588831981 0.85758604261979 0.30500577211604 
C35   C     0.35314269427461 0.85704699164854 0.34865878468405 
C36   C     0.51354436008692 0.62825725724384 0.59286914029693 
C37   C     0.54552168563065 0.77833308601476 0.47790835841144 
C38   C     0.59804498272261 0.70250372530815 0.55324600315201 
H1    H     0.07966346441762 0.70714609862435 0.97204563152539 
H2    H     0.84712051012986 0.72652916047088 0.93539071137541 
H3    H     0.62094147376320 0.67775885764706 0.13805236193465 
H4    H     0.48124262192136 0.53363201715329 0.16321456329151 
H5    H     0.64749726362387 0.83004962079074 0.03054317216979 
H6    H     0.27450720951004 0.43681044142239 0.07461113659118 
H7    H     0.55374339655226 0.95994890000912 0.86643057617226 
H8    H     0.04252325628051 0.41221548232786 0.90283139298414 
H9    H     0.36725180466243 0.03276877395756 0.72366549980843 
H10   H     0.86184080192828 0.46398502554703 0.68952451349638 
H11   H     0.12695196335948 0.03999680737143 0.64494984750698 
H12   H     0.77402543477414 0.57908470024802 0.47493378218835 
H13   H     0.90823242047640 0.97865957814260 0.67138385975863 
H14   H     0.80768885923700 0.71869079495036 0.31780001408856 
H15   H     0.31717721846938 0.57648733871041 0.60457931630535 
H16   H     0.75684514803280 0.86032390233065 0.77693594322023 
H17   H     0.95852001757310 0.84297576139270 0.22754850839279 
H18   H     0.17613298865821 0.90802217172193 0.21560864262719 
H19   H     0.41781347870970 0.90883065418477 0.29961529912160 
H20   H     0.55291880767860 0.56556653457088 0.63944704855458 
H21   H     0.60877382376800 0.83434934263722 0.43761288916916 
H22   H     0.70339203816905 0.69958614874315 0.57850139776944 
