data_stdin
_audit_creation_method 'critic2'
_audit_creation_date 2023-8-11
_chemical_formula_sum 'C38 H22'
_cell_formula_units_Z 2
_cell_length_a        10.6077678574
_cell_length_b        15.4791215537
_cell_length_c         9.2995872349
_cell_angle_alpha        72.1865
_cell_angle_beta       109.4565
_cell_angle_gamma        70.0292
_cell_volume          1191.836718
_space_group_crystal_system triclinic
_space_group_IT_number 2
_space_group_name_H-M_alt 'P-1'
_space_group_name_Hall '-P 1'
loop_
_symmetry_equiv_pos_site_id
_symmetry_equiv_pos_as_xyz
 1 'x,y,z'
 2 '-x,-y,-z'
loop_
_atom_site_label
_atom_site_type_symbol
_atom_site_fract_x
_atom_site_fract_y
_atom_site_fract_z
C1    C     0.48912438654296 0.13625862552400 0.03714487928220 
C2    C     0.59103668735140 0.12006814525979 0.20364059067906 
C3    C     0.48211226919462 0.19079642841129 0.87506487778170 
C4    C     0.65417369016828 0.18721033805545 0.22721228033698 
C5    C     0.61105854508802 0.19645920590569 0.85918146387530 
C6    C     0.59026540051089 0.29375664428336 0.09934111130303 
C7    C     0.76549216209744 0.13189089103836 0.99534321928207 
C8    C     0.43042085696735 0.36253246732191 0.96818192139531 
C9    C     0.38722601037420 0.09514009018609 0.03298125711683 
C10   C     0.62803252577910 0.03431742878273 0.35514046543070 
C11   C     0.34404544161386 0.23322952312088 0.71935571183763 
C12   C     0.79091249219559 0.14443139943584 0.38500886983912 
C13   C     0.58576030395716 0.26269624252248 0.69417814567105 
C14   C     0.69374512542189 0.33355593523076 0.10374247249252 
C15   C     0.30289037760693 0.35509487390236 0.98542422470158 
C16   C     0.88577163323648 0.13850120584036 0.97487073703599 
C17   C     0.39503422887388 0.44795955142878 0.81803809662561 
C18   C     0.41376713711541 0.01915389670058 0.18891939300490 
C19   C     0.53829416407312 0.98367054473075 0.34346308993976 
C20   C     0.25831958168108 0.13050095908395 0.87260252855959 
C21   C     0.75291730014191 0.00113501559336 0.51801633381459 
C22   C     0.23071261887819 0.20436352376667 0.72235314459930 
C23   C     0.83812557555222 0.05048084126494 0.52948510117119 
C24   C     0.32246030043378 0.29933155111165 0.55740137098869 
C25   C     0.88157959261402 0.19445296867639 0.39621586950536 
C26   C     0.43699664025731 0.31707500877847 0.54580332951623 
C27   C     0.84001430602564 0.28173036852690 0.25465935080127 
C28   C     0.15154204236914 0.41813111079944 0.83817255200760 
C29   C     0.71035025176808 0.26935840516797 0.67755051959191 
C30   C     0.65032845702170 0.42506265919964 0.95757669615547 
C31   C     0.31707403060032 0.29369368045470 0.14451129899769 
C32   C     0.85789242330289 0.21007062877535 0.81591226439383 
C33   C     0.50940607602589 0.47531733865339 0.81381941574965 
C34   C     0.24228791562775 0.51092596678024 0.67517897761367 
C35   C     0.12551430709813 0.49477401796091 0.68272903556064 
C36   C     0.19402118319278 0.28490654076717 0.15305624031972 
C37   C     0.02807158394831 0.40618975213355 0.84941332678500 
C38   C     0.04946793712063 0.33822557630535 0.00329636258600 
H1    H     0.78981637218269 0.07506979614215 0.11819261234545 
H2    H     0.00311944717464 0.08736194599629 0.08183686218782 
H3    H     0.33756188803236 0.98616042942450 0.18162136039392 
H4    H     0.56580261017440 0.91977062897354 0.46079756482875 
H5    H     0.18112973294512 0.09894346597675 0.87406660199895 
H6    H     0.78177569435455 0.93370398565575 0.63125124135495 
H7    H     0.12707542202999 0.23709267894076 0.60053636502264 
H8    H     0.94096082774759 0.02089441993020 0.64984402205928 
H9    H     0.21253872330755 0.33449945121538 0.44162374138504 
H10   H     0.98855224306192 0.15798480617646 0.51631452859645 
H11   H     0.41853201306524 0.36837453780677 0.42151335379723 
H12   H     0.91413552482500 0.31620864254182 0.25700613093657 
H13   H     0.68831065575363 0.32035909717097 0.55098686162168 
H14   H     0.73169354333831 0.45344060506606 0.96199818584237 
H15   H     0.42652683363035 0.25282956208379 0.26259826553947 
H16   H     0.95213773677041 0.21727256764782 0.80181429616090 
H17   H     0.47832689955586 0.54202851501879 0.69824205465056 
H18   H     0.22034385833281 0.57341217487038 0.55974542800434 
H19   H     0.00955607562272 0.54281174086288 0.57270495435945 
H20   H     0.20962663285997 0.23612590686483 0.27730877990743 
H21   H     0.91504471365653 0.45239430420560 0.73385961045378 
H22   H     0.95511493338575 0.32720219951610 0.00936194330299 
