data_stdin
_audit_creation_method 'critic2'
_audit_creation_date 2023-8-11
_chemical_formula_sum 'C38 H22'
_cell_formula_units_Z 4
_cell_length_a        12.1248386729
_cell_length_b        16.5694678701
_cell_length_c        13.9081839863
_cell_angle_alpha        89.9998
_cell_angle_beta       120.0832
_cell_angle_gamma        89.9996
_cell_volume          2417.801616
_space_group_crystal_system triclinic
_space_group_IT_number 1
_space_group_name_H-M_alt 'P 1'
_space_group_name_Hall 'P 1'
loop_
_symmetry_equiv_pos_site_id
_symmetry_equiv_pos_as_xyz
 1 'x,y,z'
loop_
_atom_site_label
_atom_site_type_symbol
_atom_site_fract_x
_atom_site_fract_y
_atom_site_fract_z
C1    C     0.97867746473946 0.01507201725838 0.99104873408074 
C2    C     0.47867763364217 0.51507191707318 0.99104887175634 
C3    C     0.97867684273901 0.98492825712918 0.49104819311776 
C4    C     0.47867697474523 0.48492831385943 0.49104825589393 
C5    C     0.00173406799970 0.94419816245716 0.05927522724980 
C6    C     0.50173427553141 0.44419808218787 0.05927540790330 
C7    C     0.00173332252804 0.05580188742643 0.55927500582554 
C8    C     0.50173338340029 0.55580196226262 0.55927502366381 
C9    C     0.06054039722071 0.08502733493425 0.02276732194385 
C10   C     0.56054052406964 0.58502725285489 0.02276741921797 
C11   C     0.06053957335294 0.91497290910468 0.52276686243117 
C12   C     0.56053978725842 0.41497300385629 0.52276696324641 
C13   C     0.07326614287748 0.94420255078305 0.17944452110419 
C14   C     0.57326637278162 0.44420250793190 0.17944470053442 
C15   C     0.07326545477686 0.05579737142271 0.67944430458987 
C16   C     0.57326550764980 0.55579749031586 0.67944432424381 
C17   C     0.19643459159241 0.08316973420212 0.10120588355553 
C18   C     0.69643471519152 0.58316968893745 0.10120598927782 
C19   C     0.19643391997880 0.91683069624565 0.60120550885988 
C20   C     0.69643413760030 0.41683086160911 0.60120558946925 
C21   C     0.09630486239140 0.01507961941755 0.24766134438208 
C22   C     0.59630508992913 0.51507959708619 0.24766148356901 
C23   C     0.09630437326461 0.98492008147279 0.74766081879805 
C24   C     0.59630447980656 0.48492022329938 0.74766088872500 
C25   C     0.26823387859862 0.01077117552858 0.13598368607315 
C26   C     0.76823405030070 0.51077115017978 0.13598383545000 
C27   C     0.26823339433714 0.98922924685882 0.63598319163825 
C28   C     0.76823351695221 0.48922945024449 0.63598321345214 
C29   C     0.01442433406392 0.08502653575666 0.21593181936511 
C30   C     0.51442453835427 0.58502650135507 0.21593193041661 
C31   C     0.01442368962237 0.91497318419140 0.71593141216123 
C32   C     0.51442386599015 0.41497329342757 0.71593152620933 
C33   C     0.86606261899864 0.01546814622695 0.88456037353381 
C34   C     0.36606278186880 0.51546801043410 0.88456051634849 
C35   C     0.86606201308779 0.98453200096501 0.38455976271697 
C36   C     0.36606212715451 0.48453199492923 0.38455983838985 
C37   C     0.94711201966362 0.86989250180135 0.00466266611775 
C38   C     0.44711223333629 0.36989240584039 0.00466289618149 
C39   C     0.94711131603527 0.13010747845997 0.50466267650722 
C40   C     0.44711129204191 0.63010752432764 0.50466264292935 
C41   C     0.00690689145196 0.15910530152046 0.96731762402656 
C42   C     0.50690697397248 0.65910520133575 0.96731768681306 
C43   C     0.00690558472702 0.84089485648487 0.46731733118678 
C44   C     0.50690587258284 0.34089491864600 0.46731749703355 
C45   C     0.12790565972537 0.86990290312497 0.23406741564791 
C46   C     0.62790591290185 0.36990287717219 0.23406763580185 
C47   C     0.12790503812128 0.13009708853030 0.73406740285546 
C48   C     0.62790500352032 0.63009723639282 0.73406737365565 
C49   C     0.26512818620795 0.15752376209079 0.13800144702283 
C50   C     0.76512825602952 0.65752373372491 0.13800153016903 
C51   C     0.26512716797040 0.84247665461078 0.63800104569950 
C52   C     0.76512748383939 0.34247685377089 0.63800117245986 
C53   C     0.20891883426651 0.01548881927068 0.35414995900246 
C54   C     0.70891907990217 0.51548883254697 0.35415008277228 
C55   C     0.20891840376982 0.98451102028666 0.85414935030324 
C56   C     0.70891848584746 0.48451122306877 0.85414943743484 
C57   C     0.87853100775644 0.08315379581160 0.13749209800822 
C58   C     0.37853120589752 0.58315373063044 0.13749223769972 
C59   C     0.87853049180220 0.91684571177546 0.63749179274786 
C60   C     0.37853066132096 0.41684575824559 0.63749191194912 
C61   C     0.39801187695122 0.01111438028648 0.20971469646972 
C62   C     0.89801203924577 0.51111439295937 0.20971487873858 
C63   C     0.39801169330935 0.98888600350104 0.70971378129316 
C64   C     0.89801181624078 0.48888627568797 0.70971379806598 
C65   C     0.06803862604016 0.15911113485143 0.27136953714866 
C66   C     0.56803881617374 0.65911111976266 0.27136959221349 
C67   C     0.06803753715626 0.84088868218739 0.77136928759498 
C68   C     0.56803779120709 0.34088882220267 0.77136945486096 
C69   C     0.80259793861064 0.94150832582210 0.83597645209115 
C70   C     0.30259813618537 0.44150817313047 0.83597663543343 
C71   C     0.80259746631381 0.05849179869270 0.33597590855540 
C72   C     0.30259749193197 0.55849176067079 0.33597593790913 
C73   C     0.84911663908102 0.87015941943765 0.89102961615162 
C74   C     0.34911685438700 0.37015928485143 0.89102984618741 
C75   C     0.84911632120219 0.12984070967481 0.39102945073824 
C76   C     0.34911627941930 0.62984069881167 0.39102942334052 
C77   C     0.81860337035698 0.08979750804876 0.82708751477949 
C78   C     0.31860348432423 0.58979735596113 0.82708762234581 
C79   C     0.81860201025186 0.91020248856658 0.32708742805242 
C80   C     0.31860219157797 0.41020245054385 0.32708757138941 
C81   C     0.99021527325216 0.79613991736214 0.06485339506931 
C82   C     0.49021548816619 0.29613984131719 0.06485367462730 
C83   C     0.99021471585915 0.20385998164075 0.56485364968504 
C84   C     0.49021461875703 0.70386005225311 0.56485356364992 
C85   C     0.88287371244891 0.16029932342546 0.87145422419722 
C86   C     0.38287378861191 0.66029918884013 0.87145429296763 
C87   C     0.88287198151998 0.83970067737418 0.37145436607797 
C88   C     0.38287224851994 0.33970067194111 0.37145455662098 
C89   C     0.08481761859175 0.79614517821231 0.17388711430266 
C90   C     0.58481785570326 0.29614513415385 0.17388738676566 
C91   C     0.08481710303560 0.20385489092120 0.67388736150941 
C92   C     0.58481700674985 0.70385501222920 0.67388727546017 
C93   C     0.07863648419133 0.23220553933132 0.00519922783567 
C94   C     0.57863652270828 0.73220545664892 0.00519925528964 
C95   C     0.07863524856939 0.76779473897993 0.50519857756029 
C96   C     0.57863563124805 0.26779483855884 0.50519879213456 
C97   C     0.22590092111650 0.87018137355275 0.34770050925091 
C98   C     0.72590119860689 0.37018138441462 0.34770071891654 
C99   C     0.22590076830479 0.12981847769937 0.84770031172920 
C100  C     0.72590068474219 0.62981868410341 0.84770030015443 
C101  C     0.20186465288747 0.23204147468297 0.09067026697446 
C102  C     0.70186468374675 0.73204142760823 0.09067030379149 
C103  C     0.20186359563461 0.76795896670863 0.59066954744832 
C104  C     0.70186399231155 0.26795913267471 0.59066973828329 
C105  C     0.27240198140905 0.94153575190589 0.40274388970339 
C106  C     0.77240224884222 0.44153578026999 0.40274405170448 
C107  C     0.27240168679666 0.05846410954795 0.90274331302777 
C108  C     0.77240166395225 0.55846434552408 0.90274336503299 
C109  C     0.80981926484961 0.15750036114871 0.10068069369322 
C110  C     0.30981942407000 0.65750028027623 0.10068080803600 
C111  C     0.80981846040538 0.84249914952909 0.60068038763031 
C112  C     0.30981870761576 0.34249916521930 0.60068056424567 
C113  C     0.39733919474430 0.15627347472253 0.21624712760737 
C114  C     0.89733925613322 0.65627348739593 0.21624724111110 
C115  C     0.39733822420863 0.84372698707531 0.71624723521448 
C116  C     0.89733854152720 0.34372725745076 0.71624735187884 
C117  C     0.25635873144797 0.08982413339951 0.41161144229022 
C118  C     0.75635896962615 0.58982416538508 0.41161151163689 
C119  C     0.25635757884149 0.91017587080663 0.91161137142308 
C120  C     0.75635773272782 0.41017610135025 0.91161151439112 
C121  C     0.80675092423351 0.01074741744892 0.10272742231583 
C122  C     0.30675115710412 0.51074733717951 0.10272761512320 
C123  C     0.80675056229746 0.98925208110158 0.60272702051325 
C124  C     0.30675065529137 0.48925209679259 0.60272709402998 
C125  C     0.46316054187284 0.08442503583704 0.25308965095313 
C126  C     0.96316064664855 0.58442506782278 0.25308981826333 
C127  C     0.46315979395733 0.91557540971155 0.75308939643620 
C128  C     0.96316001383638 0.41557571750568 0.75308946273931 
C129  C     0.19207102062134 0.16031905490021 0.36723324639947 
C130  C     0.69207122590320 0.66031907119448 0.36723328106234 
C131  C     0.19206952480797 0.83968093685018 0.86723343972330 
C132  C     0.69206976925124 0.33968113540686 0.86723362142124 
C133  C     0.99628987611882 0.23220345136172 0.23347434609012 
C134  C     0.49629003416433 0.73220342178869 0.23347436226102 
C135  C     0.99628891011994 0.76779623470910 0.73347377510451 
C136  C     0.49628925471938 0.26779634213392 0.73347397690428 
C137  C     0.87306306682319 0.23202544166006 0.14800059962945 
C138  C     0.37306320827057 0.73202537889342 0.14800064629817 
C139  C     0.87306226260179 0.76797405779823 0.64799996633067 
C140  C     0.37306260443510 0.26797410306052 0.64800017321354 
C141  C     0.67697379465200 0.01107611599047 0.02899244518217 
C142  C     0.17697401990682 0.51107600554502 0.02899266833320 
C143  C     0.67697371010517 0.98892339884591 0.52899166157747 
C144  C     0.17697379482515 0.48892335720249 0.52899176293147 
C145  C     0.67760995685841 0.15623496664984 0.02243005641199 
C146  C     0.17761010196368 0.65623485560130 0.02243021799493 
C147  C     0.67760916805751 0.84376447299313 0.52243029585053 
C148  C     0.17760940471087 0.34376443014189 0.52243050202085 
C149  C     0.61180790922344 0.08437909829481 0.98559973430801 
C150  C     0.11180808464207 0.58437897215804 0.98559994572561 
C151  C     0.61180730367913 0.91562034292008 0.48559963996018 
C152  C     0.11180745827487 0.41562027049674 0.48559981061189 
H1    H     0.22078040684303 0.95383753546413 0.10111554920543 
H2    H     0.72078062022396 0.45383749683772 0.10111571465200 
H3    H     0.22078008623269 0.04616291229774 0.60111526843322 
H4    H     0.72078013429766 0.54616308973241 0.60111525208190 
H5    H     0.45046112937247 0.95436910093822 0.23375967587758 
H6    H     0.95046133029604 0.45436912869885 0.23375990112435 
H7    H     0.45046119720448 0.04563122455784 0.73375819403195 
H8    H     0.95046124591056 0.54563152450702 0.73375817179463 
H9    H     0.72131076453736 0.94265053575738 0.75181947866419 
H10   H     0.22131096357871 0.44265035771793 0.75181966030285 
H11   H     0.72131054293383 0.05734950013900 0.25181878231327 
H12   H     0.22131055077074 0.55734941806019 0.25181882204321 
H13   H     0.80973027446400 0.81277343566996 0.85008324624199 
H14   H     0.30973050356846 0.31277328720263 0.85008351632489 
H15   H     0.80973004328806 0.18722666758337 0.35008337353296 
H16   H     0.30972992646344 0.68722663499387 0.35008330713921 
H17   H     0.72870873871610 0.08935592691388 0.74854712505719 
H18   H     0.22870884730903 0.58935574646083 0.74854724026902 
H19   H     0.72870701959519 0.91064409029079 0.24854731528684 
H20   H     0.22870717907383 0.41064400036539 0.24854747746231 
H21   H     0.94983832175383 0.73951494413828 0.02178764342562 
H22   H     0.44983851944467 0.23951485662639 0.02178796775930 
H23   H     0.94983793001359 0.26048481913678 0.52178754906570 
H24   H     0.44983776931016 0.76048486862625 0.52178742803446 
H25   H     0.84344343983669 0.21787028099447 0.83109354056060 
H26   H     0.34344348116189 0.71787013373541 0.83109358391223 
H27   H     0.84344090643391 0.78212960534046 0.33109440742066 
H28   H     0.34344122271186 0.28212957576627 0.33109465754386 
H29   H     0.12520415165652 0.73952464254686 0.21696263100485 
H30   H     0.62520438785968 0.23952461055870 0.21696293957105 
H31   H     0.12520381707757 0.26047556944130 0.71696249793990 
H32   H     0.62520365342410 0.76047571247635 0.71696237192359 
H33   H     0.03210806103191 0.28829129227162 0.96366336556439 
H34   H     0.53210807090208 0.78829119450141 0.96366335994012 
H35   H     0.03210702626860 0.71170888299540 0.46366260826362 
H36   H     0.53210747995626 0.21170895058735 0.46366288708066 
H37   H     0.26530233493425 0.81280012604183 0.38865529405502 
H38   H     0.76530263371390 0.31280014957746 0.38865553272894 
H39   H     0.26530228657789 0.18719975876825 0.88865534531303 
H40   H     0.76530210528414 0.68719998870997 0.88865530100625 
H41   H     0.25598312361859 0.28800112419528 0.11983723280375 
H42   H     0.75598311980661 0.78800109100168 0.11983724587757 
H43   H     0.25598212974844 0.71199936543224 0.61983594646545 
H44   H     0.75598259573439 0.21199955855640 0.61983616800234 
H45   H     0.35368870496079 0.94268652870571 0.48690066015812 
H46   H     0.85368898985032 0.44268658362465 0.48690081262786 
H47   H     0.35368870664623 0.05731341895560 0.98689991565514 
H48   H     0.85368864709722 0.55731370019577 0.98689998927134 
H49   H     0.44704371822293 0.21367913371135 0.24436960592952 
H50   H     0.94704373939951 0.71367916026589 0.24436970165986 
H51   H     0.44704220460546 0.78632130903547 0.74437054662907 
H52   H     0.94704259649078 0.28632160596542 0.74437070985082 
H53   H     0.34625372204492 0.08939327251489 0.49015162888676 
H54   H     0.84625397506307 0.58939333165883 0.49015168706849 
H55   H     0.34625221329971 0.91060673705282 0.99015184252780 
H56   H     0.84625235234576 0.41060701648155 0.99015199666062 
H57   H     0.85421869599076 0.95381986558033 0.13760873842142 
H58   H     0.35421896205769 0.45381979798466 0.13760895247951 
H59   H     0.85421845851727 0.04617961889462 0.63760852999998 
H60   H     0.35421850125830 0.54617965812322 0.63760854647099 
H61   H     0.56505703147186 0.08426165762994 0.31240593751171 
H62   H     0.06505712699007 0.58426171979162 0.31240613099738 
H63   H     0.56505623289722 0.91573874326293 0.81240607842467 
H64   H     0.06505645099290 0.41573910597734 0.81240615147224 
H65   H     0.23148774393205 0.21789471496163 0.40758444537547 
H66   H     0.73148793656530 0.71789474272291 0.40758444332849 
H67   H     0.23148543867388 0.78210539441320 0.90758537137181 
H68   H     0.73148573921093 0.28210561288574 0.90758559071244 
H69   H     0.04280260309697 0.28829516940905 0.27500107849273 
H70   H     0.54280275041869 0.78829515613124 0.27500104029655 
H71   H     0.04280185975115 0.71170462951446 0.77500041356166 
H72   H     0.54280227282640 0.21170475745866 0.77500063768519 
H73   H     0.81893069269944 0.28797926129305 0.11882331978608 
H74   H     0.31893080926628 0.78797918766321 0.11882333834739 
H75   H     0.81892999450994 0.71202017438791 0.61882215416599 
H76   H     0.31893041235176 0.21202019007739 0.61882239331443 
H77   H     0.62453889057547 0.95432543723314 0.00495685165274 
H78   H     0.12453914628530 0.45432531532060 0.00495711372578 
H79   H     0.62453903855261 0.04567412669784 0.50495552098265 
H80   H     0.12453906294592 0.54567406332801 0.50495559148057 
H81   H     0.62789105793304 0.21363487814672 0.99429259870491 
H82   H     0.12789116905871 0.71363475623495 0.99429275583551 
H83   H     0.62788976673319 0.78636456865189 0.49429370240356 
H84   H     0.12789005771400 0.28636450407362 0.49429396135344 
H85   H     0.50991259374369 0.08420319041555 0.92627996729723 
H86   H     0.00991276072993 0.58420304013794 0.92628020907249 
H87   H     0.50991192084995 0.91579626468496 0.42628030301911 
H88   H     0.00991206733004 0.41579614579056 0.42628049898761 
