data_stdin
_audit_creation_method 'critic2'
_audit_creation_date 2023-8-11
_chemical_formula_sum 'C38 H22'
_cell_formula_units_Z 4
_cell_length_a        11.1251517194
_cell_length_b        10.9735449101
_cell_length_c        21.2009261501
_cell_angle_alpha        89.9997
_cell_angle_beta       109.2536
_cell_angle_gamma        90.0001
_cell_volume          2443.493045
_space_group_crystal_system monoclinic
_space_group_IT_number 14
_space_group_name_H-M_alt 'P2_1/c'
_space_group_name_Hall '-P 2ybc'
loop_
_symmetry_equiv_pos_site_id
_symmetry_equiv_pos_as_xyz
 1 'x,y,z'
 2 '-x,-y,-z'
 3 '-x,-1/2+y,-1/2-z'
 4 'x,-1/2-y,-1/2+z'
loop_
_atom_site_label
_atom_site_type_symbol
_atom_site_fract_x
_atom_site_fract_y
_atom_site_fract_z
C1    C     0.81157071098438 0.29207506320460 0.71482956719419 
C2    C     0.80265295369455 0.42261104818599 0.70532506830946 
C3    C     0.82430733499862 0.20550816499044 0.66616837649655 
C4    C     0.75439500200471 0.48209448603028 0.64098636889475 
C5    C     0.88037104165795 0.23337490376871 0.61494460270213 
C6    C     0.66947758849073 0.42544845937245 0.58147302393596 
C7    C     0.95561342198884 0.33849275083892 0.61665985052500 
C8    C     0.58254943356162 0.32759409205127 0.58111217393491 
C9    C     0.80834599203425 0.24610926699870 0.77716044234162 
C10   C     0.84205423076748 0.49803474912766 0.76309171226474 
C11   C     0.79077731297694 0.08221983854627 0.67245325793885 
C12   C     0.79701239887369 0.60285685817096 0.63583206370726 
C13   C     0.87209433698763 0.14536026592413 0.56386860872765 
C14   C     0.67266244383320 0.46909486299245 0.51871602281231 
C15   C     0.52829395647399 0.30649376384349 0.63374297812631 
C16   C     0.00870718836997 0.36138288207289 0.56735845788775 
C17   C     0.53951838707724 0.25289907241239 0.52327962405460 
C18   C     0.82825897182957 0.32656802048290 0.83238853133234 
C19   C     0.85527721457465 0.44703063917730 0.82687485625525 
C20   C     0.78671715117253 0.11980069421358 0.78426462893764 
C21   C     0.86649515500466 0.62406402799048 0.75637895235090 
C22   C     0.76983812108491 0.04177861128328 0.73176110122500 
C23   C     0.85524574746004 0.67194776987700 0.69510709548575 
C24   C     0.78250685580684 0.99725651100255 0.62021572614424 
C25   C     0.78158468305789 0.65243134215130 0.57159322303214 
C26   C     0.81661778344077 0.02893729204750 0.56625131712863 
C27   C     0.73000385510035 0.58371214297752 0.51520736730585 
C28   C     0.46004606852432 0.19585807964794 0.63367198056224 
C29   C     0.92591535303808 0.17160869079303 0.51354035175008 
C30   C     0.61847795704985 0.39770296081081 0.46006482810898 
C31   C     0.52976095418147 0.39465936216945 0.68285658899140 
C32   C     0.99079645653871 0.27910714562549 0.51407364212963 
C33   C     0.56216867150532 0.28826451326806 0.46350205017992 
C34   C     0.46882875989834 0.14480139119671 0.52411341424408 
C35   C     0.43598376924915 0.11376567183058 0.57864142395995 
C36   C     0.47861417302454 0.37065730219205 0.73280946428846 
C37   C     0.41039719065222 0.17244325614569 0.68597583449372 
C38   C     0.42162163255170 0.25715729506731 0.73577146075194 
H1    H     0.97440238059461 0.40163506563030 0.65820977073641 
H2    H     0.06542343177383 0.44333456360995 0.57001164009502 
H3    H     0.82679182924283 0.28858741569260 0.87958241585724 
H4    H     0.88246894091627 0.50735264860144 0.87014731351257 
H5    H     0.78055782741230 0.08732996626074 0.83168146026362 
H6    H     0.89937916410973 0.67963788620327 0.80125563659438 
H7    H     0.74720274338711 0.94622214918190 0.73597541439643 
H8    H     0.88706951310399 0.76443469826603 0.69061678459493 
H9    H     0.74768737615366 0.90595379311997 0.62459865257044 
H10   H     0.81574333757205 0.74449456145496 0.56851707883474 
H11   H     0.80823913865862 0.96415642283087 0.52604678570277 
H12   H     0.72598087777585 0.61826071289640 0.46637354757179 
H13   H     0.91750639171972 0.10333465653968 0.47498362068161 
H14   H     0.62528421621803 0.43108725322107 0.41296882650221 
H15   H     0.57042558071904 0.48387246914908 0.68077219730792 
H16   H     0.03075456553820 0.29914907457010 0.47481326883022 
H17   H     0.52682659037691 0.23002244235687 0.41959008028620 
H18   H     0.44163464316098 0.08693249089592 0.47996379354332 
H19   H     0.38503231727512 0.02917315814591 0.57946994735132 
H20   H     0.48072704893506 0.44123837267076 0.76922365892736 
H21   H     0.35966751736141 0.08726160740730 0.68527415012564 
H22   H     0.38214628665049 0.23768573060153 0.77537602516609 
