data_stdin
_audit_creation_method 'critic2'
_audit_creation_date 2023-8-11
_chemical_formula_sum 'C38 H22'
_cell_formula_units_Z 4
_cell_length_a        12.1045414975
_cell_length_b         8.1843266214
_cell_length_c        24.4727790638
_cell_angle_alpha        89.9991
_cell_angle_beta        81.1257
_cell_angle_gamma        90.0000
_cell_volume          2395.434672
_space_group_crystal_system monoclinic
_space_group_IT_number 14
_space_group_name_H-M_alt 'P2_1/c'
_space_group_name_Hall '-P 2ybc'
loop_
_symmetry_equiv_pos_site_id
_symmetry_equiv_pos_as_xyz
 1 'x,y,z'
 2 '-x,-y,-z'
 3 '-x,-1/2+y,-1/2-z'
 4 'x,-1/2-y,-1/2+z'
loop_
_atom_site_label
_atom_site_type_symbol
_atom_site_fract_x
_atom_site_fract_y
_atom_site_fract_z
C1    C     0.74602657987510 0.32236799784003 0.10667500669713 
C2    C     0.86359063319340 0.30154189009713 0.10995212378441 
C3    C     0.65543571788474 0.24794965321659 0.14365994935971 
C4    C     0.91046182224415 0.15774735163517 0.13176726708194 
C5    C     0.66242470807584 0.19747676164211 0.19994570628660 
C6    C     0.85574843883779 0.00044167433506 0.13665192015938 
C7    C     0.74745393646435 0.25098520383121 0.22968299352506 
C8    C     0.77428203609098 0.94654546333148 0.10324433464404 
C9    C     0.71879133475092 0.42392481890348 0.06344481552303 
C10   C     0.93820173889189 0.42872639747081 0.08882523735210 
C11   C     0.54973474420224 0.23326223776950 0.12544995855970 
C12   C     0.01504033097169 0.17351252525596 0.15104119157955 
C13   C     0.57549243474661 0.09746751404365 0.22886704115915 
C14   C     0.88222401778181 0.89262933346208 0.17844010008711 
C15   C     0.77298246544749 0.99689889520992 0.04653955282983 
C16   C     0.75178051168132 0.19770992314107 0.28299972696454 
C17   C     0.69589238751155 0.82622930092677 0.12592080987349 
C18   C     0.79996050697861 0.53507412092464 0.03638081245354 
C19   C     0.90287031299585 0.54734709810004 0.05251406603965 
C20   C     0.60964853167184 0.41661695687163 0.04873395964645 
C21   C     0.04814510481958 0.43282209403773 0.10313899090341 
C22   C     0.52971947933649 0.31673959565693 0.07681372269042 
C23   C     0.08241467319396 0.31459999630689 0.13643053281687 
C24   C     0.46317164966844 0.13734377410252 0.15638083246152 
C25   C     0.04948090412906 0.04942984213681 0.18563841816486 
C26   C     0.47811748729234 0.06305801580269 0.20459970310158 
C27   C     0.98062508149706 0.92018255601239 0.20247290958430 
C28   C     0.67940844197511 0.95337067400841 0.02032179653894 
C29   C     0.58357176929173 0.04078968135908 0.28271894412297 
C30   C     0.80939423413931 0.75977745613338 0.19604664852459 
C31   C     0.86498781724653 0.07349704661029 0.01349585410382 
C32   C     0.67080187852117 0.08834540306641 0.30939522778112 
C33   C     0.71395572995943 0.73657854263327 0.17359999416334 
C34   C     0.60201158470101 0.78923749456520 0.09934973775310 
C35   C     0.59187327146486 0.85514288873265 0.04916074000728 
C36   C     0.86266210093715 0.11277695086551 0.95871041309478 
C37   C     0.67713138823263 0.00148567093114 0.96495428548239 
C38   C     0.76655519415612 0.08124752585732 0.93451271980310 
H1    H     0.80995351876040 0.33687736425178 0.21031351290835 
H2    H     0.81869655394234 0.24007235599138 0.30451809913651 
H3    H     0.77630571631555 0.61715437444838 0.00513517260946 
H4    H     0.96145744350902 0.64143080323253 0.03523862203640 
H5    H     0.59203794810555 0.49099419329823 0.01419956408471 
H6    H     0.10279435114100 0.53430646243998 0.08814929793482 
H7    H     0.44756380981182 0.30555967440122 0.06417972898171 
H8    H     0.16297014908252 0.32377937727248 0.15091158579166 
H9    H     0.38491179927928 0.12275336874899 0.14009132731911 
H10   H     0.12962370072967 0.06313693810806 0.20018751906979 
H11   H     0.41426981167998 0.98259396672652 0.22634317152356 
H12   H     0.00118639534528 0.83356998423819 0.23319174664989 
H13   H     0.51842270472510 0.96019865353518 0.30311061940042 
H14   H     0.82944088525820 0.68105919388382 0.22895950009674 
H15   H     0.94042801376520 0.09748752815315 0.03107882214888 
H16   H     0.67524348234735 0.04503518687052 0.35111623605512 
H17   H     0.65368954606288 0.64304264216601 0.18953690054391 
H18   H     0.53922224028619 0.70535715904397 0.11992206867906 
H19   H     0.51995396917493 0.82640292673102 0.02911508926465 
H20   H     0.93636661637084 0.16520415628106 0.93371301747297 
H21   H     0.60347954181056 0.97170775215509 0.94647069855288 
H22   H     0.76410132098508 0.11536771006508 0.89171199910460 
