data_stdin
_audit_creation_method 'critic2'
_audit_creation_date 2023-8-11
_chemical_formula_sum 'C38 H22'
_cell_formula_units_Z 2
_cell_length_a        10.2641112578
_cell_length_b        13.0639116590
_cell_length_c        10.2638566933
_cell_angle_alpha        76.8093
_cell_angle_beta        71.9788
_cell_angle_gamma       103.2245
_cell_volume          1205.780171
_space_group_crystal_system triclinic
_space_group_IT_number 2
_space_group_name_H-M_alt 'P-1'
_space_group_name_Hall '-P 1'
loop_
_symmetry_equiv_pos_site_id
_symmetry_equiv_pos_as_xyz
 1 'x,y,z'
 2 '-x,-y,-z'
loop_
_atom_site_label
_atom_site_type_symbol
_atom_site_fract_x
_atom_site_fract_y
_atom_site_fract_z
C1    C     0.19639616453232 0.62151535275140 0.83519060687861 
C2    C     0.17089261733843 0.68988074160872 0.71939224036032 
C3    C     0.21578787434842 0.65311193942933 0.95560427133935 
C4    C     0.21925193239834 0.81006759930948 0.67103662429144 
C5    C     0.15647372092319 0.73194290799620 0.01180525901611 
C6    C     0.33511195674272 0.87848959144033 0.69647574865746 
C7    C     0.04726873014239 0.76734043160557 0.97686294955096 
C8    C     0.45551964364511 0.84691884039265 0.71583254995164 
C9    C     0.20294096257331 0.51484269120050 0.82898899348446 
C10   C     0.09694152165729 0.63526800028977 0.64496265730937 
C11   C     0.28754763262009 0.59713729790231 0.03132708006668 
C12   C     0.14477338486086 0.86461862906469 0.59716083542536 
C13   C     0.19867934423706 0.76854504974828 0.11823728871792 
C14   C     0.32897704762510 0.98517411565283 0.70301914289305 
C15   C     0.51167168876993 0.76808985024678 0.65647274017709 
C16   C     0.99181448642089 0.84163178286928 0.03357156717784 
C17   C     0.53127238710777 0.90290937572968 0.78760964485116 
C18   C     0.14420170226255 0.46631550157601 0.74003437345080 
C19   C     0.08171571100453 0.52158342117068 0.66037292722136 
C20   C     0.26687203020492 0.45696996562299 0.91300728999252 
C21   C     0.04027109641847 0.69539515643251 0.55450754130673 
C22   C     0.31700941824455 0.50106967737564 0.00375892987152 
C23   C     0.05421633406881 0.80441981060122 0.54057876539372 
C24   C     0.32618559100909 0.63464243273161 0.13877938979647 
C25   C     0.16024885092587 0.97831423354601 0.58191799750218 
C26   C     0.28844239506723 0.72047080956830 0.17681511093179 
C27   C     0.24001083063680 0.03365415324517 0.64432284604712 
C28   C     0.61805807929379 0.73147627768149 0.69868058466881 
C29   C     0.14385067282946 0.84743155226416 0.17116374289001 
C30   C     0.41304666143006 0.04308049202045 0.76694143682962 
C31   C     0.47672439606465 0.73270981665319 0.54722604570198 
C32   C     0.04348729819978 0.88500180910248 0.12849474216792 
C33   C     0.50376360571065 0.99899172976361 0.81708236214335 
C34   C     0.63868044608306 0.86539330154443 0.82625456778887 
C35   C     0.67664163666708 0.77954592325775 0.78849122446620 
C36   C     0.53340552100386 0.65843348286755 0.49170896936686 
C37   C     0.67093686029540 0.65259071044261 0.64380008207576 
C38   C     0.62828796908892 0.61505312824083 0.54337001483119 
H1    H     0.00292932013652 0.73257576977718 0.90735595041234 
H2    H     0.90685475530904 0.86619745404955 0.00557838650663 
H3    H     0.14254148444952 0.38206523259550 0.74377654226057 
H4    H     0.02314779729592 0.48078805891530 0.60430299851784 
H5    H     0.27787197309242 0.37832322932678 0.90070904334511 
H6    H     0.98130503093309 0.65231491577154 0.50048632717340 
H7    H     0.37334168679762 0.46038718869081 0.06206771734894 
H8    H     0.00012829352794 0.84743936289427 0.48169475859218 
H9    H     0.38659764082220 0.59247502188855 0.18989365610181 
H10   H     0.10413510014506 0.01906065157814 0.52341353709242 
H11   H     0.31894461573300 0.74939147952012 0.25809475718555 
H12   H     0.24380385731557 0.11791614589250 0.64264770770029 
H13   H     0.17968200645557 0.87553491557611 0.25008531397043 
H14   H     0.40080048501116 0.12173683550107 0.77795128616943 
H15   H     0.40724400556743 0.76748190646402 0.50290463875678 
H16   H     0.00123352504578 0.94489044968564 0.17106359825063 
H17   H     0.56208806659258 0.03969353101928 0.87342810657533 
H18   H     0.68981695390671 0.90756268644892 0.88669109026406 
H19   H     0.75788089269938 0.75061282645665 0.81900576281765 
H20   H     0.50542568085963 0.63389035984099 0.40670639300438 
H21   H     0.74981660474710 0.62446924369244 0.67963741136894 
H22   H     0.67083636507307 0.55517694131286 0.50106349245718 
