data_stdin
_audit_creation_method 'critic2'
_audit_creation_date 2023-8-11
_chemical_formula_sum 'C38 H22'
_cell_formula_units_Z 6
_cell_length_a         9.9657078073
_cell_length_b        14.2680626501
_cell_length_c        25.1632502549
_cell_angle_alpha        90.0001
_cell_angle_beta        90.0778
_cell_angle_gamma        90.0008
_cell_volume          3577.993057
_space_group_crystal_system monoclinic
_space_group_IT_number 4
_space_group_name_H-M_alt 'P2_1'
_space_group_name_Hall 'P 2yb'
loop_
_symmetry_equiv_pos_site_id
_symmetry_equiv_pos_as_xyz
 1 'x,y,z'
 2 '-x,-1/2+y,-z'
loop_
_atom_site_label
_atom_site_type_symbol
_atom_site_fract_x
_atom_site_fract_y
_atom_site_fract_z
C1    C     0.49655325997184 0.34993934084286 0.98220498997521 
C2    C     0.58739154753730 0.40557056832159 0.88130902794273 
C3    C     0.19525336989181 0.65851692465096 0.72786465087359 
C4    C     0.20623379016088 0.24971661060606 0.87349440089599 
C5    C     0.68023627239635 0.38706335950364 0.92303027306630 
H1    H     0.78677666570689 0.39745840866805 0.91544499882010 
C6    C     0.41123904825996 0.42587086674246 0.79467955391100 
C7    C     0.11580499837003 0.86510411319312 0.70958820081393 
C8    C     0.32822021892347 0.69832600500648 0.72303391905085 
C9    C     0.26453040166173 0.39323973610254 0.95991446637180 
C10   C     0.17007077059292 0.44353400944122 0.92897961607988 
H2    H     0.20003769821440 0.47241304061282 0.89092373967438 
C11   C     0.97113702198274 0.27331021954430 0.84471867048945 
H3    H     0.86487825342443 0.26005078234123 0.85134607002236 
C12   C     0.41526326289488 0.65977742048476 0.68392592825575 
C13   C     0.44828056580963 0.38552142821654 0.88857483593232 
C14   C     0.17291247702784 0.66347108743977 0.82910446166519 
C15   C     0.48247882572007 0.18513860601760 0.83399219615251 
H4    H     0.41646978569084 0.21703081673136 0.80485517139675 
C16   C     0.24957959114007 0.14596580153450 0.94956496270248 
C17   C     0.22546749126328 0.09179782195627 0.55050547325269 
H5    H     0.25670042053038 0.05643441551900 0.58666787284963 
C18   C     0.35892549750212 0.64694506389434 0.89173252721716 
H6    H     0.46332529340528 0.62846392554551 0.89917526173465 
C19   C     0.43379204721409 0.16723096346774 0.88587121056148 
C20   C     0.29385319263764 0.84271208993691 0.78149766119659 
C21   C     0.37830236698409 0.77515640947839 0.75487289973256 
C22   C     0.22476558310865 0.36680166053279 0.01254095749138 
C23   C     0.06587136763679 0.23513986943455 0.88126506720468 
C24   C     0.63642561900065 0.35361816292856 0.97084161312207 
H7    H     0.70706975065619 0.33497946089206 0.00214191905528 
C25   C     0.30922282587908 0.64359050359736 0.84045588981903 
H8    H     0.37530234416434 0.62195983580317 0.80855818381237 
C26   C     0.52747091008871 0.33164794314162 0.66595263328827 
H9    H     0.45758594631900 0.29535062400836 0.69174423989827 
C27   C     0.27485976036004 0.67261190064329 0.93423590739111 
H10   H     0.31491199773478 0.67613162343229 0.97443879557973 
C28   C     0.36673147941037 0.37806994714038 0.84114506513346 
C29   C     0.16078388251868 0.86866265956510 0.76440626776531 
C30   C     0.52018748585402 0.11613523210465 0.92114322707866 
C31   C     0.22591998609828 0.58918614726818 0.63886640353672 
H11   H     0.18288972471590 0.55166309660766 0.60524823857134 
C32   C     0.32274231049442 0.43751481260865 0.75065794323157 
H12   H     0.35857339396889 0.47472839025310 0.71573287492505 
C33   C     0.93551725102348 0.92438492523892 0.78938285027302 
H13   H     0.86911735135061 0.95125319877599 0.82020697153004 
C34   C     0.24385063455191 0.32435686308304 0.83748650947274 
C35   C     0.20509517150388 0.85877414116462 0.66593808633996 
H14   H     0.31248513656467 0.85789742631892 0.67322982572756 
C36   C     0.40085360305642 0.37423833407088 0.94253222121160 
C37   C     0.61091095670680 0.16010953752916 0.81881933953771 
H15   H     0.64390525965441 0.17427032611524 0.77837159161523 
C38   C     0.36133599989623 0.60417451991509 0.64197104021475 
H16   H     0.42862225522640 0.57718244738299 0.61159026396940 
C39   C     0.11647519686429 0.65797065673240 0.77596032458962 
C40   C     0.60704555295898 0.73323981086389 0.72654241809122 
H17   H     0.71487801278122 0.74283408264121 0.73096085312562 
C41   C     0.97588956373932 0.64236770302991 0.77166252360958 
C42   C     0.29841451088193 0.19054757134137 0.90283508714540 
C43   C     0.07359825615453 0.91020536363176 0.80237152218808 
C44   C     0.09119357707667 0.38207999083807 0.02945760596347 
H18   H     0.06261601734768 0.35968384490754 0.06926942841774 
C45   C     0.57241616928462 0.84184662731879 0.80220529174169 
H19   H     0.68084509633778 0.84539701539795 0.80724188527752 
C46   C     0.14045373199644 0.61435953755941 0.68188508827856 
C47   C     0.63317504067263 0.44444251857441 0.83244208352593 
H20   H     0.73886931433995 0.46318508740720 0.82889849703222 
C48   C     0.45375404502214 0.32564020413864 0.03449344681365 
H21   H     0.52941124271053 0.30387571278822 0.06314969284023 
C49   C     0.00155865847781 0.59150337154347 0.68023098879209 
H22   H     0.96131198420610 0.56001338774605 0.64413336388603 
C50   C     0.49834656319508 0.14852822133061 0.59551171958848 
C51   C     0.97681331970156 0.87932561563341 0.69797555382628 
C52   C     0.51968811787524 0.78367079616848 0.76114244246125 
C53   C     0.27458145780964 0.18952870155452 0.47369802871490 
C54   C     0.94370930777782 0.67977111617548 0.86522452739449 
H23   H     0.87840732784119 0.69215272173307 0.89923665570442 
C55   C     0.69762414785500 0.11476682546244 0.85479447056926 
H24   H     0.79894434724241 0.09606552112100 0.84262934007446 
C56   C     0.65207362658674 0.09245561875485 0.90504913766395 
H25   H     0.71560462218036 0.05368651460460 0.93272032445104 
C57   C     0.30817160851176 0.39758643926824 0.54979161728282 
C58   C     0.55588290807778 0.67782944482792 0.68699286325690 
H26   H     0.62119264758062 0.64382580665701 0.65815128267240 
C59   C     0.25577993114871 0.27898628648119 0.61727530856830 
C60   C     0.31589114816630 0.15249607775119 0.52397079294823 
C61   C     0.88741725651293 0.90522113902726 0.73970572795059 
H27   H     0.78159383160358 0.91439670159448 0.73028910784886 
C62   C     0.02005562644856 0.18410628381184 0.92631061519379 
H28   H     0.91233771877365 0.17821029157058 0.93288592957149 
C63   C     0.04074393868849 0.45904505665161 0.94672027574384 
H29   H     0.97193814204296 0.49852271872397 0.92156882740262 
C64   C     0.47072350555363 0.08415190642571 0.97112207486557 
H30   H     0.53780345422784 0.04560195863487 0.99740369659410 
C65   C     0.41440133238671 0.14536848774184 0.64227253260816 
C66   C     0.01388230676824 0.32237121471596 0.80124506979689 
H31   H     0.94360238857550 0.34574645229151 0.77078132844710 
C67   C     0.48826847290103 0.88794264271406 0.83628160949970 
H32   H     0.52779885830919 0.92810436864279 0.86955188574029 
C68   C     0.15064947665125 0.35008553320679 0.79700064987271 
C69   C     0.09826985322745 0.07449593738510 0.53076524497087 
H33   H     0.03232756756167 0.02753157282442 0.55264551045823 
C70   C     0.34728586295651 0.88901736992917 0.82702003098681 
C71   C     0.10999730439234 0.14679756836996 0.96145424905038 
H34   H     0.07566548286248 0.11197920998224 0.99740913106229 
C72   C     0.19351891731150 0.40606451117817 0.75337923758013 
H35   H     0.12234997035190 0.42118246266631 0.72166518210714 
C73   C     0.45132003231023 0.17063249740317 0.54268806116058 
C74   C     0.08569553985534 0.68037375727096 0.87319022621730 
C75   C     0.92036135594665 0.61007191846179 0.72276334892859 
H36   H     0.81323787799585 0.59530694301408 0.72079897908662 
C76   C     0.33883987107239 0.09619685628133 0.98387717750395 
H37   H     0.29885648552276 0.06643168307697 0.02045148501251 
C77   C     0.32179866572532 0.32978106150538 0.04854335988341 
H38   H     0.29009798845301 0.30980187563227 0.08840480697835 
C78   C     0.35130121230695 0.34304835846101 0.59393601377386 
C79   C     0.29061764040907 0.19710230565185 0.64815380183389 
C80   C     0.48510465224623 0.36039079814219 0.61472146332833 
C81   C     0.14034521594715 0.68892866136776 0.92492574293741 
H39   H     0.07301341853106 0.70512096742767 0.95772564311637 
C82   C     0.12547347519399 0.94272127798694 0.85186459999869 
H40   H     0.05796208755165 0.97737371247249 0.87964613506197 
C83   C     0.99923379435455 0.42590650044386 0.99677572939267 
H41   H     0.89690171004816 0.43720593475768 0.01044511788225 
C84   C     0.63771872488601 0.12923933785984 0.60227150730890 
C85   C     0.89122535432900 0.65592524187666 0.81687823861473 
H42   H     0.78325423297865 0.64728366287139 0.81185427705798 
C86   C     0.26027952466615 0.93851067577247 0.86201206977398 
H43   H     0.30295652311986 0.97160082784796 0.89717592746602 
C87   C     0.15859118710735 0.85737432325978 0.61417909629787 
H44   H     0.22974841468640 0.85469499319356 0.58141668900055 
C88   C     0.11647651646355 0.29616319943428 0.60872258772232 
C89   C     0.54604579308473 0.20519712237188 0.50533260525788 
C90   C     0.14345200175690 0.17151878574423 0.45455762434779 
H45   H     0.11390315890634 0.20085981551097 0.41634452305865 
C91   C     0.05532056598458 0.11611837602472 0.48293274949124 
H46   H     0.95467797218869 0.10295878533575 0.46775278795189 
C92   C     0.57665729356498 0.41583124530066 0.58419574386314 
C93   C     0.19528800915700 0.16318714209292 0.68556308409359 
C94   C     0.65466196741381 0.35165809041714 0.68481244533053 
H47   H     0.68300891287745 0.32890434492862 0.72456684254441 
C95   C     0.54465027681993 0.46143632997583 0.79196270827972 
H48   H     0.57565235344084 0.49772465909676 0.75593997336430 
C96   C     0.45776659820865 0.08953629713343 0.68583817230244 
C97   C     0.36864145602071 0.23952155456352 0.44175177667924 
H49   H     0.33478677393656 0.27026108805991 0.40447054203716 
C98   C     0.40297268903718 0.45078329388738 0.51984443890952 
H50   H     0.36816388895593 0.48748287158667 0.48445113984092 
C99   C     0.01997907512689 0.86169537414744 0.60334704528054 
H51   H     0.98389243985836 0.85734731660824 0.56256944764506 
C100  C     0.53411244955200 0.45617054147209 0.53513902202473 
H52   H     0.60645494885436 0.49559344558919 0.51178981582243 
C101  C     0.16946284668629 0.40140396535857 0.53620210788008 
H53   H     0.13979714554732 0.44420785958964 0.50230497600924 
C102  C     0.50077168008555 0.24276230020054 0.45586913485461 
H54   H     0.57446215896785 0.27379876697072 0.42927147302037 
C103  C     0.93090441395816 0.87401377406614 0.64476520472973 
H55   H     0.82393561928665 0.88277511725643 0.63703088051081 
C104  C     0.68596672077523 0.19974579566568 0.51667933901262 
H56   H     0.75690587481266 0.22559000268992 0.48720050245629 
C105  C     0.73026465159387 0.15635850721971 0.56195718384813 
H57   H     0.83701223515216 0.14480236329779 0.56869220197800 
C106  C     0.01934025012216 0.25063081728142 0.64132951849131 
H58   H     0.91365667114231 0.26617938936729 0.63480462121476 
C107  C     0.68301493441458 0.08347512418439 0.64940402111815 
H59   H     0.78938001613203 0.06686951509825 0.65320347722075 
C108  C     0.70646395962356 0.43548553551164 0.60428892676661 
H60   H     0.77331803645672 0.47862752962766 0.58023596409139 
C109  C     0.23675170315319 0.09887842215585 0.72568047008561 
H61   H     0.16432189708384 0.07714230437645 0.75559062382779 
C110  C     0.59328386822526 0.05780149902016 0.68793733407297 
H62   H     0.62451526563337 0.01729395736109 0.72248950774808 
C111  C     0.07551255650333 0.35772408809600 0.56716321942679 
H63   H     0.96853832599180 0.36664351099684 0.55964337967982 
C112  C     0.74569984412574 0.40345321790441 0.65373897182948 
H64   H     0.84521896952915 0.41955210687737 0.66913587560157 
C113  C     0.05889822592943 0.19228003993106 0.68159316975233 
H65   H     0.98643962958061 0.16337473023641 0.70955022345151 
C114  C     0.36670696502649 0.06823478949504 0.72776667076619 
H66   H     0.40162984670858 0.02492875356409 0.76051596992216 
