data_stdin
_audit_creation_method 'critic2'
_audit_creation_date 2023-8-11
_chemical_formula_sum 'C18 H12'
_cell_formula_units_Z 8
_cell_length_a        33.6656670312
_cell_length_b        10.2838785580
_cell_length_c         7.7349305021
_cell_angle_alpha        90.0051
_cell_angle_beta       116.2204
_cell_angle_gamma        90.0075
_cell_volume          2402.381904
_space_group_crystal_system monoclinic
_space_group_IT_number 15
_space_group_name_H-M_alt 'C2/c'
_space_group_name_Hall '-C 2yc'
loop_
_symmetry_equiv_pos_site_id
_symmetry_equiv_pos_as_xyz
 1 'x,y,z'
 2 '-1/2-x,-1/2-y,-z'
 3 '-1/2-x,-1/2+y,-1/2-z'
 4 'x,-y,-1/2+z'
 5 '-1/2+x,-1/2+y,z'
 6 '-x,-y,-z'
 7 '-x,y,-1/2-z'
 8 '-1/2+x,-1/2-y,-1/2+z'
loop_
_atom_site_label
_atom_site_type_symbol
_atom_site_fract_x
_atom_site_fract_y
_atom_site_fract_z
H1    H     0.29476288003830 0.25429978043091 0.87051428996534 
H2    H     0.22448967015522 0.17263974026657 0.83896019017019 
H3    H     0.21442203988344 0.93615772971987 0.88650343016183 
H4    H     0.27647063989992 0.78348445994005 0.94604340022794 
H5    H     0.34884265000385 0.73851612973537 0.97123231065822 
H6    H     0.33885525987446 0.32058298044812 0.10242754975341 
H7    H     0.41751446996926 0.81522244002278 0.96125559937877 
H8    H     0.46453764992556 0.98263475999522 0.95451350041070 
H9    H     0.48762996998007 0.21463072956283 0.99055727056099 
H10   H     0.36708798989155 0.54184965013205 0.17128492980892 
H11   H     0.47718138995948 0.43528431997903 0.06105336974745 
H12   H     0.43529267986966 0.60517559967464 0.14132839003778 
C1    C     0.29248890986958 0.15213624024428 0.89950535980468 
C2    C     0.32961384005132 0.06969250044077 0.94775759058091 
C3    C     0.37319211997261 0.11419229963297 0.97870521951129 
C4    C     0.25196585991627 0.10511099024998 0.87698855049008 
C5    C     0.32203785007994 0.93282230026392 0.95380703004374 
C6    C     0.38876562000768 0.24750057012446 0.02151562988229 
C7    C     0.40313378996643 0.01967489999150 0.97067821000597 
C8    C     0.24615296999300 0.97216997964588 0.90071886010654 
C9    C     0.28072337988818 0.88769587969314 0.93581213943789 
C10   C     0.43023267015573 0.28240769976654 0.02277851058727 
C11   C     0.35525635004801 0.84205649991645 0.96731735061175 
C12   C     0.36745598002037 0.34559559033849 0.07977092974881 
C13   C     0.39335270015226 0.88433677958169 0.96466434061648 
C14   C     0.44394255015738 0.05814833958696 0.97201830039327 
C15   C     0.45655044981489 0.18544190007315 0.99115824950929 
C16   C     0.38377761992586 0.47099352046069 0.12152565043750 
C17   C     0.44587874014661 0.41196438981666 0.06358834060868 
C18   C     0.42286703988185 0.50598215038223 0.10928989021246 
