data_stdin
_audit_creation_method 'critic2'
_audit_creation_date 2023-8-11
_chemical_formula_sum 'C18 H12'
_cell_formula_units_Z 4
_cell_length_a         8.9582415600
_cell_length_b        18.4886803300
_cell_length_c         7.1481834000
_cell_angle_alpha        90.0001
_cell_angle_beta        90.0000
_cell_angle_gamma        89.9998
_cell_volume          1183.925485
_space_group_crystal_system orthorhombic
_space_group_IT_number 19
_space_group_name_H-M_alt 'P2_12_12_1'
_space_group_name_Hall 'P 2ac 2ab'
loop_
_symmetry_equiv_pos_site_id
_symmetry_equiv_pos_as_xyz
 1 'x,y,z'
 2 '-x,-1/2+y,-1/2-z'
 3 '-1/2-x,-y,-1/2+z'
 4 '-1/2+x,-1/2-y,-z'
loop_
_atom_site_label
_atom_site_type_symbol
_atom_site_fract_x
_atom_site_fract_y
_atom_site_fract_z
H1    H     0.03829712982830 0.76263530990269 0.95282518004720 
H2    H     0.05614348036296 0.67027916005414 0.71118294997396 
H3    H     0.90729989005858 0.55678847999460 0.73291268007257 
H4    H     0.75539769034839 0.53354567023707 0.01818948018630 
H5    H     0.66687276944490 0.56929027991394 0.32403535031544 
H6    H     0.89515722002666 0.83851072991961 0.92656353048984 
H7    H     0.65779024021053 0.65819448983130 0.58213462951311 
H8    H     0.70536255014031 0.77435992018528 0.70728755065676 
H9    H     0.79424346041190 0.90079859017640 0.67468247022266 
H10   H     0.94871505010263 0.96667262993098 0.89368070950999 
H11   H     0.88926822968463 0.99779622001569 0.48409749980881 
H12   H     0.96210714986957 0.04721192007675 0.17493453000538 
C1    C     0.96816501020322 0.71497549998906 0.96445239064252 
C2    C     0.86958484987516 0.70721872979438 0.11882190024866 
C3    C     0.84116556055347 0.76324691983785 0.25688628976781 
C4    C     0.98152779027930 0.66185166999838 0.82908574023327 
C5    C     0.79899325021510 0.63796665994981 0.14129750953521 
C6    C     0.87198003981506 0.83963497003093 0.22887260060459 
C7    C     0.77235975982715 0.74242362980155 0.42791819037588 
C8    C     0.89943935981975 0.59724552020942 0.84316531975983 
C9    C     0.81308701043293 0.58489896023316 0.99974408027363 
C10   C     0.85986878026348 0.88828750985970 0.38478309936561 
C11   C     0.71924079045298 0.62213850004116 0.30893428019718 
C12   C     0.90091532001087 0.87136795992051 0.05185695963125 
C13   C     0.71289965005021 0.67138367976905 0.45082137971873 
C14   C     0.75650427008636 0.79295588013771 0.57764661944561 
C15   C     0.80443303041799 0.86266503004772 0.55940366025441 
C16   C     0.93033726974062 0.94441375989033 0.03282822052206 
C17   C     0.89592581960192 0.96236516007821 0.36265099964620 
C18   C     0.93405716050234 0.99022404020128 0.18992930935424 
