data_stdin
_audit_creation_method 'critic2'
_audit_creation_date 2023-8-11
_chemical_formula_sum 'C18 H12'
_cell_formula_units_Z 4
_cell_length_a        10.7307089900
_cell_length_b         7.1378191501
_cell_length_c        16.1058518600
_cell_angle_alpha        90.0002
_cell_angle_beta        90.0000
_cell_angle_gamma        90.0000
_cell_volume          1233.609365
_space_group_crystal_system orthorhombic
_space_group_IT_number 19
_space_group_name_H-M_alt 'P2_12_12_1'
_space_group_name_Hall 'P 2ac 2ab'
loop_
_symmetry_equiv_pos_site_id
_symmetry_equiv_pos_as_xyz
 1 'x,y,z'
 2 '-1/2-x,-y,-1/2+z'
 3 '-x,-1/2+y,-1/2-z'
 4 '-1/2+x,-1/2-y,-z'
loop_
_atom_site_label
_atom_site_type_symbol
_atom_site_fract_x
_atom_site_fract_y
_atom_site_fract_z
H1    H     0.81904540987270 0.60554442045208 0.83639411990421 
H2    H     0.62827858978422 0.64123405968903 0.75558865979536 
H3    H     0.52775392959059 0.36575983995630 0.68926945006427 
H4    H     0.63094570964944 0.05337671992846 0.69905649003972 
H5    H     0.80376602981415 0.86018067976156 0.74078342006322 
H6    H     0.82645964026939 0.57705509950018 0.95297494027064 
H7    H     0.00647276977938 0.82326067004549 0.81242828015246 
H8    H     0.17695256963014 0.94696155980052 0.88779140994244 
H9    H     0.28028847013560 0.20436339025611 0.96485483987179 
H10   H     0.92432962965099 0.81048245932920 0.04112924993182 
H11   H     0.26805306972168 0.50109303048389 0.03579794977886 
H12   H     0.14805938971603 0.78223900957639 0.08063050030429 
C1    C     0.77392449967812 0.48091210966190 0.81248836984909 
C2    C     0.83012840971949 0.30331164929979 0.82534123975784 
C3    C     0.94175912965524 0.27455619059884 0.87474859029005 
C4    C     0.66731190987986 0.50210577953582 0.76523279978990 
C5    C     0.77865472023465 0.14899825046355 0.77954027020644 
C6    C     0.99333310040368 0.41137912060556 0.93206011996180 
C7    C     0.00714267019717 0.10281030951474 0.86458776978583 
C8    C     0.61123028956141 0.34664670036121 0.72668007998220 
C9    C     0.66832765954181 0.17378075059118 0.73247114018710 
C10   C     0.11846438041152 0.38675295033222 0.96177834990305 
C11   C     0.84255551013195 0.97408252958909 0.77766538006586 
C12   C     0.92539348022922 0.56469400053751 0.96522911984527 
C13   C     0.95444693992704 0.95381570043060 0.81697867025076 
C14   C     0.12870715023360 0.07874138034297 0.89910411020627 
C15   C     0.18521231992247 0.21981176007941 0.94219834994538 
C16   C     0.98019212956340 0.69543512947976 0.01699548992825 
C17   C     0.17297447967524 0.52343103953314 0.01415064971456 
C18   C     0.10605074991868 0.67797597036273 0.04008538003348 
