data_stdin
_audit_creation_method 'critic2'
_audit_creation_date 2023-8-11
_chemical_formula_sum 'C18 H12'
_cell_formula_units_Z 4
_cell_length_a        14.6388533975
_cell_length_b         5.8662480247
_cell_length_c        14.5706332183
_cell_angle_alpha        89.9987
_cell_angle_beta        76.1547
_cell_angle_gamma        89.9981
_cell_volume          1214.900742
_space_group_crystal_system monoclinic
_space_group_IT_number 9
_space_group_name_H-M_alt 'Cc'
_space_group_name_Hall 'C -2yc'
loop_
_symmetry_equiv_pos_site_id
_symmetry_equiv_pos_as_xyz
 1 'x,y,z'
 2 'x,-y,-1/2+z'
 3 '-1/2+x,-1/2+y,z'
 4 '-1/2+x,-1/2-y,-1/2+z'
loop_
_atom_site_label
_atom_site_type_symbol
_atom_site_fract_x
_atom_site_fract_y
_atom_site_fract_z
H1    H     0.99572675026505 0.70974821013018 0.99207379016586 
H2    H     0.09638885001152 0.00145773953150 0.89803499005162 
H3    H     0.02626982023910 0.35754670083157 0.85123550022136 
H4    H     0.85269210023789 0.39398491956753 0.88354648032892 
H5    H     0.69791578018472 0.23103391036900 0.93820804029037 
H6    H     0.96620701986207 0.72163386072093 0.12886202965452 
H7    H     0.59414110003026 0.91657716956451 0.01792177992490 
H8    H     0.56849503017801 0.57976613956227 0.10824165971863 
H9    H     0.62412581019272 0.26730116935473 0.19578389972222 
H10   H     0.01503049027392 0.41912958049989 0.22205824980319 
H11   H     0.74643984984682 0.09299302028243 0.25749827004426 
H12   H     0.90795691984139 0.09484277942536 0.28354883020483 
C1    C     0.96372429994046 0.86498211078192 0.97409785032812 
C2    C     0.86456967970338 0.89145316977216 0.00288713998280 
C3    C     0.80193561001957 0.73393748017224 0.06452835021261 
C4    C     0.02060785036126 0.02758673919468 0.91965992988077 
C5    C     0.82494235002729 0.07949511068557 0.96257617011930 
C6    C     0.83132659015848 0.57091574951049 0.12664571991862 
C7    C     0.70497147024038 0.74079287067024 0.06405905976466 
C8    C     0.98110910036182 0.22633377967381 0.89115982987941 
C9    C     0.88448678007884 0.24836964916279 0.91041219009164 
C10   C     0.76661532027698 0.39703206972410 0.17125156981157 
C11   C     0.72608447971492 0.08857054960494 0.97069492981710 
C12   C     0.91954597010514 0.57783237041973 0.15093220981174 
C13   C     0.66908512013665 0.91801222954083 0.01538370016078 
C14   C     0.64155288991412 0.57159810969613 0.11289061029937 
C15   C     0.67202669986594 0.40093102015942 0.16176183028200 
C16   C     0.94630536967048 0.40986005062931 0.20579813027605 
C17   C     0.79613997998098 0.22629401971505 0.22645673021730 
C18   C     0.88561798010613 0.22798083053589 0.24177723968517 
