data_stdin
_audit_creation_method 'critic2'
_audit_creation_date 2023-8-11
_chemical_formula_sum 'C18 H12'
_cell_formula_units_Z 4
_cell_length_a        18.4607356897
_cell_length_b         3.8761481556
_cell_length_c        16.0060719868
_cell_angle_alpha        90.0026
_cell_angle_beta        92.2778
_cell_angle_gamma        90.0021
_cell_volume          1144.434269
_space_group_crystal_system monoclinic
_space_group_IT_number 14
_space_group_name_H-M_alt 'P2_1/c'
_space_group_name_Hall '-P 2ybc'
loop_
_symmetry_equiv_pos_site_id
_symmetry_equiv_pos_as_xyz
 1 'x,y,z'
 2 '-x,-y,-z'
 3 '-x,-1/2+y,-1/2-z'
 4 'x,-1/2-y,-1/2+z'
loop_
_atom_site_label
_atom_site_type_symbol
_atom_site_fract_x
_atom_site_fract_y
_atom_site_fract_z
H1    H     0.21589114978609 0.21274880049245 0.94983345011193 
H2    H     0.10623368016365 0.05634464039232 0.02070510001137 
H3    H     0.00677384994263 0.72781136091878 0.94480656980235 
H4    H     0.01659068978322 0.60890870013038 0.79352023972921 
H5    H     0.07930904019986 0.66850045058443 0.66436814019446 
H6    H     0.30116808023780 0.90211866022543 0.94908476004287 
H7    H     0.18303066009017 0.89654739100017 0.58739280028110 
H8    H     0.29773737982803 0.17825349027756 0.58415222989303 
H9    H     0.40762308977316 0.42617807073888 0.65599967982121 
H10   H     0.41792636975349 0.06829996019427 0.01355836989572 
H11   H     0.48208276021038 0.50474361879197 0.78119009013841 
H12   H     0.50841025027524 0.39319054917720 0.93178410019613 
C1    C     0.17489811027073 0.06042699056422 0.91629056029317 
C2    C     0.18480178025519 0.97302014077202 0.83147002015513 
C3    C     0.24998284996723 0.05117209968095 0.78762419991664 
C4    C     0.11204263010434 0.97762568086061 0.95600296991265 
C5    C     0.12395850995224 0.82397009047562 0.78609652986944 
C6    C     0.31927028986842 0.13472088984048 0.82839750981543 
C7    C     0.24568382011426 0.04604640987217 0.69890542009673 
C8    C     0.05539440022858 0.80139008122054 0.91283480991191 
C9    C     0.06112774973535 0.73205811947079 0.82877113977136 
C10   C     0.37498406984030 0.28284881936952 0.77980449022340 
C11   C     0.12571867999117 0.78602927948658 0.69758451003213 
C12   C     0.33810332022686 0.05417682045652 0.91295052021190 
C13   C     0.18315892020723 0.90897033014416 0.65543538983855 
C14   C     0.30376961014616 0.17830964102878 0.65217306028656 
C15   C     0.36465039008032 0.31028764945434 0.69134272005240 
C16   C     0.40486443021881 0.14218767039991 0.94911247974403 
C17   C     0.44177636008971 0.38159312024776 0.81901875971115 
C18   C     0.45654257998713 0.31730847046753 0.90270311971056 
