data_stdin
_audit_creation_method 'critic2'
_audit_creation_date 2023-8-11
_chemical_formula_sum 'C18 H12'
_cell_formula_units_Z 8
_cell_length_a        18.5874871605
_cell_length_b         7.4626018308
_cell_length_c        17.2730075801
_cell_angle_alpha        90.0008
_cell_angle_beta        89.9999
_cell_angle_gamma        89.9994
_cell_volume          2395.956425
_space_group_crystal_system orthorhombic
_space_group_IT_number 61
_space_group_name_H-M_alt 'Pbca'
_space_group_name_Hall '-P 2ac 2ab'
loop_
_symmetry_equiv_pos_site_id
_symmetry_equiv_pos_as_xyz
 1 'x,y,z'
 2 '-x,-y,-z'
 3 '-1/2+x,-1/2-y,-z'
 4 '-1/2-x,-1/2+y,z'
 5 '-x,-1/2+y,-1/2-z'
 6 'x,-1/2-y,-1/2+z'
 7 '-1/2-x,-y,-1/2+z'
 8 '-1/2+x,y,-1/2-z'
loop_
_atom_site_label
_atom_site_type_symbol
_atom_site_fract_x
_atom_site_fract_y
_atom_site_fract_z
H1    H     0.51843686984463 0.53597358937532 0.65725814005305 
H2    H     0.62463543000887 0.47883699997278 0.73698132020062 
H3    H     0.61355751022467 0.43874461956886 0.87932017989572 
H4    H     0.49356557012114 0.47588980938864 0.94146008994401 
H5    H     0.36759714013744 0.55551627952991 0.93438605013683 
H6    H     0.46298240015967 0.34465673965176 0.60931326005802 
H7    H     0.26319300973711 0.65714767035785 0.85689806013587 
H8    H     0.20760889975472 0.72626715010944 0.73598069979356 
H9    H     0.20601095984382 0.72188937946995 0.59301816019645 
H10   H     0.45179841022952 0.31279993955468 0.46948830991010 
H11   H     0.25801955981465 0.62829996946467 0.47223098016218 
H12   H     0.35154360985851 0.46219857961418 0.39793965016826 
C1    C     0.51143530022569 0.51271913006641 0.71874728996021 
C2    C     0.44146149996794 0.52098970989922 0.75131149005994 
C3    C     0.37663118974684 0.54958172039698 0.70630829972948 
C4    C     0.57177548985027 0.48478215939237 0.76388879026090 
C5    C     0.43661584974291 0.51595081981622 0.83418152978140 
C6    C     0.37126570018202 0.52197037967371 0.62336616999004 
C7    C     0.31436683016739 0.61108760057687 0.74594738997536 
C8    C     0.56577072982434 0.46375271937392 0.84454880977122 
C9    C     0.49906828000866 0.48181250029255 0.87873309010560 
C10   C     0.30981572990125 0.59116800997317 0.58278192000598 
C11   C     0.37019709001538 0.55785467970711 0.87133512971562 
C12   C     0.42039553986207 0.41694016031873 0.57989064996140 
C13   C     0.31240076026691 0.61247876975154 0.82856406982641 
C14   C     0.25319448975165 0.67293008037142 0.70378933995347 
C15   C     0.25210909986054 0.67040504024682 0.62482237996698 
C16   C     0.41305639996489 0.39489372993793 0.50069583987557 
C17   C     0.30458981995742 0.57086317997367 0.50149307024662 
C18   C     0.35595354991821 0.47663123019177 0.46047561973864 
