data_stdin
_audit_creation_method 'critic2'
_audit_creation_date 2023-8-11
_chemical_formula_sum 'C18 H12'
_cell_formula_units_Z 4
_cell_length_a         8.1517243741
_cell_length_b        24.0999998824
_cell_length_c         7.3169909074
_cell_angle_alpha        89.9998
_cell_angle_beta        56.4822
_cell_angle_gamma        89.9991
_cell_volume          1198.439648
_space_group_crystal_system monoclinic
_space_group_IT_number 9
_space_group_name_H-M_alt 'Cc'
_space_group_name_Hall 'C -2yc'
loop_
_symmetry_equiv_pos_site_id
_symmetry_equiv_pos_as_xyz
 1 'x,y,z'
 2 'x,-y,-1/2+z'
 3 '-1/2+x,-1/2+y,z'
 4 '-1/2+x,-1/2-y,-1/2+z'
loop_
_atom_site_label
_atom_site_type_symbol
_atom_site_fract_x
_atom_site_fract_y
_atom_site_fract_z
H1    H     0.00276336964454 0.88954164013269 0.00880175071374 
H2    H     0.98084844012704 0.83945257006627 0.31254845944707 
H3    H     0.72084751031722 0.76791903011264 0.52111577975080 
H4    H     0.47322524008841 0.75087056013996 0.43169600978985 
H5    H     0.32887716989228 0.77306859999862 0.22840154047795 
H6    H     0.15951407031194 0.86026081995686 0.69264717951973 
H7    H     0.31050907049724 0.83611262000565 0.97096441023024 
H8    H     0.43127397022143 0.91448012006392 0.72841589974810 
H9    H     0.70555321959618 0.97738263984492 0.47142082020666 
H10   H     0.43956458945430 0.91011515001256 0.38893991012929 
H11   H     0.05171489965757 0.99926743997081 0.26874385970097 
H12   H     0.38757425007500 0.98186207979313 0.18000424054605 
C1    C     0.89401149917535 0.85677535987551 0.09027092082198 
C2    C     0.76075589948188 0.84610341992262 0.02690440025876 
C3    C     0.76580825922651 0.87508862983017 0.85027396056834 
C4    C     0.88021869937819 0.82903365991906 0.26391871067733 
C5    C     0.60239215042015 0.80816244990793 0.15980611996980 
C6    C     0.93626873959780 0.90396811990727 0.67383117057534 
C7    C     0.59182467045804 0.87517858987900 0.85000191013268 
C8    C     0.73197944955774 0.78920997991610 0.38371746033097 
C9    C     0.59436130976723 0.77949943985909 0.33331763021754 
C10   C     0.91036957026239 0.94199743983002 0.54060735962361 
C11   C     0.44603713968526 0.80267544004721 0.12713291054685 
C12   C     0.13211131945861 0.89308848996578 0.61087981049582 
C13   C     0.43645073919560 0.83722564994569 0.98542792067556 
C14   C     0.57138815974546 0.91322302018181 0.71429741935585 
C15   C     0.72186442041980 0.94768644998352 0.57279204933373 
C16   C     0.29092095962820 0.92070547993285 0.43731244978060 
C17   C     0.07480439987705 0.97055470011521 0.36729236070541 
C18   C     0.26215135000568 0.96064295991916 0.31727342986814 
