data_stdin
_audit_creation_method 'critic2'
_audit_creation_date 2023-8-11
_chemical_formula_sum 'C18 H12'
_cell_formula_units_Z 8
_cell_length_a        37.5461749674
_cell_length_b         8.4703654588
_cell_length_c         7.5626918514
_cell_angle_alpha        90.0031
_cell_angle_beta        89.1352
_cell_angle_gamma        89.9806
_cell_volume          2404.887423
_space_group_crystal_system triclinic
_space_group_IT_number 2
_space_group_name_H-M_alt 'P-1'
_space_group_name_Hall '-P 1'
loop_
_symmetry_equiv_pos_site_id
_symmetry_equiv_pos_as_xyz
 1 'x,y,z'
 2 '-x,-y,-z'
 3 '-1/2+x,-1/2+y,z'
 4 '-1/2-x,-1/2-y,-z'
loop_
_atom_site_label
_atom_site_type_symbol
_atom_site_fract_x
_atom_site_fract_y
_atom_site_fract_z
H1    H     0.11759211990100 0.40090170001243 0.91667910018103 
H2    H     0.88240189997555 0.40078552999065 0.58327030033500 
H3    H     0.16125273998154 0.19152391040683 0.93943523043359 
H4    H     0.83875151988448 0.19148832044651 0.56050684062149 
H5    H     0.22618770009720 0.24977570988488 0.92653814980330 
H6    H     0.77381439987077 0.24986005057334 0.57344088955168 
H7    H     0.24656569989131 0.52800463027706 0.88892427960535 
H8    H     0.75342067993462 0.52812047974577 0.61111694937527 
H9    H     0.23379784009506 0.80326224975220 0.83613748940700 
H10   H     0.76617263007623 0.80335650971302 0.66391032029103 
H11   H     0.09677199996748 0.51320144058525 0.11822723985057 
H12   H     0.90321511992286 0.51306884976084 0.38174271973606 
H13   H     0.19016326996808 0.00935566977576 0.75338897006546 
H14   H     0.80979574009919 0.00938056017872 0.74666282036580 
H15   H     0.13004313999747 0.09271814052106 0.70197560965557 
H16   H     0.86990911004693 0.09262873027677 0.79809286039426 
H17   H     0.06512231990384 0.05842147049145 0.74205155061827 
H18   H     0.93483201999171 0.05822275015471 0.75800409053115 
H19   H     0.03354461011723 0.50359108992277 0.19234640042593 
H20   H     0.96644148003835 0.50338604958640 0.30756585043119 
H21   H     0.01556630008779 0.91900943043481 0.87804593026584 
H22   H     0.98439352988939 0.91876683007625 0.62193566943909 
H23   H     0.99138199005711 0.70169429013702 0.06442658008863 
H24   H     0.00859065006035 0.70143324972576 0.43549391951450 
C1    C     0.14556871992249 0.43265913972708 0.91911507990767 
C2    C     0.85442334990372 0.43259659951218 0.58085526986222 
C3    C     0.15598375004888 0.59306675058457 0.90453150943883 
C4    C     0.84399921012001 0.59302390049512 0.59546717030090 
C5    C     0.13094245995757 0.72244479014992 0.88960749032438 
C6    C     0.86903248996910 0.72235980033611 0.61040054006743 
C7    C     0.17037237987351 0.31268248025519 0.92701237983421 
C8    C     0.82962601005747 0.31266544002788 0.57295003027275 
C9    C     0.19341546003268 0.62506756956469 0.88828201965642 
C10   C     0.80656564998362 0.62509100010322 0.61173885056152 
C11   C     0.09351633011283 0.71324990051881 0.93932686007753 
C12   C     0.90645909996729 0.71310727960683 0.56067117946003 
C13   C     0.14379807994347 0.86761383017744 0.81942417055472 
C14   C     0.85616812998735 0.86755143945922 0.68060493050628 
C15   C     0.20702645993855 0.34593050990193 0.92002592962499 
C16   C     0.79297010004277 0.34598060984653 0.57996218009762 
C17   C     0.21827913011599 0.50004207978358 0.90034827935048 
C18   C     0.78170878993398 0.50011172016066 0.59967106946125 
C19   C     0.06977274999694 0.83487803993835 0.88100075060486 
C20   C     0.93019458999065 0.83469901006584 0.61900821022663 
C21   C     0.20526818006045 0.78041744951321 0.84544432988637 
C22   C     0.79470343992443 0.78046197947529 0.65459523011079 
C23   C     0.07915262996494 0.59749205029296 0.05609954052684 
C24   C     0.92082959990813 0.59733428993797 0.44387037009166 
C25   C     0.18123707012904 0.89474872014787 0.80229402036776 
C26   C     0.81872766000635 0.89475447989126 0.69774634979617 
C27   C     0.11942054989720 0.98702108959395 0.76539034969529 
C28   C     0.88053784988643 0.98691486049060 0.73465849955019 
C29   C     0.08353696991300 0.96848321031082 0.78808146994240 
C30   C     0.91642247001395 0.96831956006799 0.71196091035355 
C31   C     0.04327110995745 0.59365992044397 0.10080470023805 
C32   C     0.95671030009471 0.59346102944592 0.39913599024477 
C33   C     0.03305626012768 0.82601504957093 0.92535955936892 
C34   C     0.96691037000747 0.82579379020480 0.57462049994015 
C35   C     0.01967263989421 0.70631972039229 0.03109966956510 
C36   C     0.98030087005460 0.70608906964644 0.46884424008873 
