data_stdin
_audit_creation_method 'critic2'
_audit_creation_date 2023-8-11
_chemical_formula_sum 'C18 H12'
_cell_formula_units_Z 4
_cell_length_a        10.0159501243
_cell_length_b         6.1863427524
_cell_length_c        19.9291332881
_cell_angle_alpha        89.9984
_cell_angle_beta       103.6857
_cell_angle_gamma        90.0007
_cell_volume          1199.791367
_space_group_crystal_system monoclinic
_space_group_IT_number 14
_space_group_name_H-M_alt 'P2_1/c'
_space_group_name_Hall '-P 2ybc'
loop_
_symmetry_equiv_pos_site_id
_symmetry_equiv_pos_as_xyz
 1 'x,y,z'
 2 '-x,-y,-z'
 3 '-x,-1/2+y,-1/2-z'
 4 'x,-1/2-y,-1/2+z'
loop_
_atom_site_label
_atom_site_type_symbol
_atom_site_fract_x
_atom_site_fract_y
_atom_site_fract_z
H1    H     0.98301291025329 0.17075560928507 0.47065391022565 
H2    H     0.10250178978365 0.45228496059157 0.54608365987448 
H3    H     0.34788190977807 0.53803796923418 0.55092639016426 
H4    H     0.47549380008720 0.30972618920603 0.48418148005164 
H5    H     0.48849663997567 0.00111461931007 0.41278582016249 
H6    H     0.88123893019650 0.21662764920126 0.37761023008691 
H7    H     0.37983746003719 0.67305879973188 0.35187148017010 
H8    H     0.18627029996986 0.45221167074051 0.30819006981744 
H9    H     0.93531114994068 0.39262937003313 0.27611640014339 
H10   H     0.63528004997138 0.16633944936141 0.33320835024053 
H11   H     0.70603171966237 0.52708878928180 0.26352682006908 
H12   H     0.54231246978592 0.81656769061045 0.27837031009418 
C1    C     0.08822821025212 0.20734717065908 0.46927672012346 
C2    C     0.15465289052450 0.08309841975623 0.42695871013659 
C3    C     0.08791937035535 0.91438690988255 0.38020280980000 
C4    C     0.15666309950063 0.36613228009322 0.51305410995387 
C5    C     0.29949119956202 0.11816600931661 0.43568983002931 
C6    C     0.94047024986400 0.89347137067194 0.35371262014258 
C7    C     0.17372471004035 0.75989523978637 0.35820303981657 
C8    C     0.29552418951233 0.41141853959383 0.51665801974989 
C9    C     0.36575858003436 0.28689684035252 0.47890088024172 
C10   C     0.88668669985415 0.70052649985147 0.31695716011390 
C11   C     0.37845958052305 0.97331601948676 0.40492407014278 
C12   C     0.84454399996900 0.06003520042707 0.35674510999586 
C13   C     0.31855143975761 0.79358052041898 0.37097979000343 
C14   C     0.11657868011729 0.57090876010325 0.32154876988781 
C15   C     0.97795161018505 0.53844852996169 0.30346669996295 
C16   C     0.70486312967285 0.03307165006803 0.33028179016673 
C17   C     0.74300581000001 0.67543346041639 0.29125972992874 
C18   C     0.65253365007955 0.83732501069848 0.29855234001461 
