data_stdin
_audit_creation_method 'critic2'
_audit_creation_date 2023-8-11
_chemical_formula_sum 'C18 H12'
_cell_formula_units_Z 4
_cell_length_a         7.2072322700
_cell_length_b        11.4586219400
_cell_length_c        14.3566206000
_cell_angle_alpha        90.0000
_cell_angle_beta        90.0000
_cell_angle_gamma        90.0000
_cell_volume          1185.640792
_space_group_crystal_system orthorhombic
_space_group_IT_number 19
_space_group_name_H-M_alt 'P2_12_12_1'
_space_group_name_Hall 'P 2ac 2ab'
loop_
_symmetry_equiv_pos_site_id
_symmetry_equiv_pos_as_xyz
 1 'x,y,z'
 2 '-1/2-x,-y,-1/2+z'
 3 '-1/2+x,-1/2-y,-z'
 4 '-x,-1/2+y,-1/2-z'
loop_
_atom_site_label
_atom_site_type_symbol
_atom_site_fract_x
_atom_site_fract_y
_atom_site_fract_z
H1    H     0.54674264956554 0.88634714962733 0.17419743975260 
H2    H     0.53679931984741 0.77758008023095 0.31958442031557 
H3    H     0.59936026048432 0.56432486041828 0.32245493019500 
H4    H     0.66086562052483 0.46010091016093 0.17273396970691 
H5    H     0.68494662967917 0.45873975965466 0.00633651984031 
H6    H     0.75567219020097 0.96764213961195 0.12718063972303 
H7    H     0.65371994959525 0.56143909000432 0.85495374027630 
H8    H     0.60753069983947 0.73238528981096 0.76605776030131 
H9    H     0.57834565985076 0.94706345993685 0.75179951965429 
H10   H     0.76314525940361 0.17867606042831 0.10654075968920 
H11   H     0.60488749998392 0.13830383023390 0.81981742027768 
H12   H     0.67539886974170 0.26799539973455 0.95342713016790 
C1    C     0.58303204051068 0.79461168964456 0.17295343978983 
C2    C     0.62792895971007 0.74021075034761 0.08710208008873 
C3    C     0.63960624017312 0.80149841022077 0.99887305974190 
C4    C     0.57304121999732 0.73252137999109 0.25536415004336 
C5    C     0.64849385946953 0.61562524984072 0.08854654014546 
C6    C     0.65439699971708 0.92722924028281 0.98883231985795 
C7    C     0.63478137014676 0.73360622998848 0.91613247002287 
C8    C     0.60697216065149 0.61171202971741 0.25687043990561 
C9    C     0.64154891012032 0.55447401043434 0.17413024981403 
C10   C     0.62475234932425 0.97882740005090 0.89897500012744 
C11   C     0.66687066034979 0.55303611006431 0.00343647005047 
C12   C     0.71002378052950 0.00376802005834 0.06128074984527 
C13   C     0.65145548934752 0.60979697995852 0.92030537000675 
C14   C     0.61445185053760 0.78808587018975 0.82743745981574 
C15   C     0.60078960975754 0.90622271957588 0.81935875986497 
C16   C     0.71777184039316 0.12349974967638 0.04911970973652 
C17   C     0.62853497036988 0.10156250993493 0.88878815970116 
C18   C     0.67105257035131 0.17374675002504 0.96282983030087 
