data_stdin
_audit_creation_method 'critic2'
_audit_creation_date 2023-8-11
_chemical_formula_sum 'C18 H12'
_cell_formula_units_Z 4
_cell_length_a        10.6393774546
_cell_length_b         8.4980114700
_cell_length_c        13.8451078405
_cell_angle_alpha        90.0002
_cell_angle_beta        97.9510
_cell_angle_gamma        89.9999
_cell_volume          1239.751571
_space_group_crystal_system monoclinic
_space_group_IT_number 14
_space_group_name_H-M_alt 'P2_1/c'
_space_group_name_Hall '-P 2ybc'
loop_
_symmetry_equiv_pos_site_id
_symmetry_equiv_pos_as_xyz
 1 'x,y,z'
 2 '-x,-y,-z'
 3 '-x,-1/2+y,-1/2-z'
 4 'x,-1/2-y,-1/2+z'
loop_
_atom_site_label
_atom_site_type_symbol
_atom_site_fract_x
_atom_site_fract_y
_atom_site_fract_z
H1    H     0.26917457973904 0.80310692950305 0.87578010975642 
H2    H     0.16315661981536 0.93920555046816 0.99613611997069 
H3    H     0.02294628995251 0.17230410989115 0.94761925995231 
H4    H     0.01173255003395 0.27887127969780 0.78034367998154 
H5    H     0.07817798995490 0.27815036980737 0.62110246022057 
H6    H     0.19677948996440 0.62538810982203 0.79215224990778 
H7    H     0.21783905997065 0.17156305980949 0.50703733992930 
H8    H     0.37373731986015 0.98780410019636 0.46869189989373 
H9    H     0.49734848009657 0.74254841980378 0.50179671981613 
H10   H     0.29333931984550 0.36401709964126 0.80201488001779 
H11   H     0.53013197976766 0.49476539952330 0.58745520977365 
H12   H     0.46468263038646 0.29709134005321 0.70352418004902 
C1    C     0.20805325980327 0.90185846996589 0.85190954997536 
C2    C     0.19655234990975 0.95310190026446 0.75348347033843 
C3    C     0.25969240042557 0.87731884965889 0.67956744026619 
C4    C     0.14832362026162 0.97967029028531 0.92075238007612 
C5    C     0.12799782019742 0.09662270041161 0.72970593982281 
C6    C     0.31115541000584 0.71907557029463 0.68704587981750 
C7    C     0.27482232018152 0.96600476052305 0.59497431964656 
C8    C     0.07216201964350 0.11265952991380 0.89423743027265 
C9    C     0.06440774034329 0.17116323972313 0.80054398031692 
C10   C     0.40099630961719 0.67376085025228 0.62375771009109 
C11   C     0.13125941988963 0.16946626957352 0.63731975968525 
C12   C     0.27338531992528 0.60145556971847 0.74997020008290 
C13   C     0.20735182984097 0.10998008997839 0.57447826966003 
C14   C     0.36018375992756 0.91396578997355 0.53070946967961 
C15   C     0.42729516038772 0.77753239017695 0.54815048982513 
C16   C     0.32698432000967 0.45276222966268 0.75497323033962 
C17   C     0.45812530952510 0.52319847985124 0.63345205989821 
C18   C     0.42233788035578 0.41378031988514 0.69806204994152 
