data_stdin
_audit_creation_method 'critic2'
_audit_creation_date 2023-8-11
_chemical_formula_sum 'C18 H12'
_cell_formula_units_Z 4
_cell_length_a        12.4854537675
_cell_length_b        10.5937233605
_cell_length_c         9.3229622818
_cell_angle_alpha        89.9992
_cell_angle_beta       101.6213
_cell_angle_gamma        90.0006
_cell_volume          1207.845835
_space_group_crystal_system monoclinic
_space_group_IT_number 14
_space_group_name_H-M_alt 'P2_1/c'
_space_group_name_Hall '-P 2ybc'
loop_
_symmetry_equiv_pos_site_id
_symmetry_equiv_pos_as_xyz
 1 'x,y,z'
 2 '-x,-y,-z'
 3 '-x,-1/2+y,-1/2-z'
 4 'x,-1/2-y,-1/2+z'
loop_
_atom_site_label
_atom_site_type_symbol
_atom_site_fract_x
_atom_site_fract_y
_atom_site_fract_z
H1    H     0.20143371039849 0.00161391985083 0.65806825023323 
H2    H     0.25012488984540 0.22385849044294 0.64602779958076 
H3    H     0.35992830992741 0.29718580990907 0.46433396022213 
H4    H     0.42997146970615 0.13924228992703 0.31015970016338 
H5    H     0.45670062001614 0.92255014983384 0.24341668964407 
H6    H     0.06694946977003 0.93086234994077 0.54647448953295 
H7    H     0.42644105036038 0.69412828043220 0.27536736977316 
H8    H     0.34823283033521 0.52429170996467 0.38415768980549 
H9    H     0.21884872986913 0.44052924958982 0.53204623970451 
H10   H     0.92680294018252 0.84079169043989 0.66399986019781 
H11   H     0.07106951974719 0.47356621000101 0.65729645054439 
H12   H     0.93274189978822 0.61267190956314 0.73387559014313 
C1    C     0.24588308016765 0.03131291993847 0.57524967024336 
C2    C     0.27755407026468 0.93954585998601 0.48092085040454 
C3    C     0.24747250999265 0.80723729006992 0.48111378029400 
C4    C     0.27500145996412 0.15707036024854 0.57009395001153 
C5    C     0.35062985993524 0.98053204008340 0.38946600010603 
C6    C     0.15948832970543 0.75783070007129 0.54515509959440 
C7    C     0.30920848027599 0.72019150969640 0.41483392053500 
C8    C     0.33777989030763 0.19811224041428 0.46942584005001 
C9    C     0.37610454008837 0.11022736016613 0.38262835032884 
C10   C     0.15347011025719 0.62445566963498 0.56841574051457 
C11   C     0.40127018967251 0.88984968984965 0.31194569962527 
C12   C     0.07326520996399 0.83227005986469 0.57846273049417 
C13   C     0.38447606985512 0.76412818959029 0.32949118031830 
C14   C     0.29704683963875 0.58764487045762 0.43345545009118 
C15   C     0.22545397023099 0.54146729032144 0.51348802019249 
C16   C     0.99316215022382 0.78111845000679 0.64401335946374 
C17   C     0.07283313020205 0.57502815028500 0.63973752956420 
C18   C     0.99484767017895 0.65208179018617 0.68008141036974 
