data_stdin
_audit_creation_method 'critic2'
_audit_creation_date 2023-8-11
_chemical_formula_sum 'C18 H12'
_cell_formula_units_Z 4
_cell_length_a        29.0205283521
_cell_length_b        10.3014409204
_cell_length_c         3.8913545827
_cell_angle_alpha        89.9953
_cell_angle_beta        90.0048
_cell_angle_gamma        90.0009
_cell_volume          1163.333124
_space_group_crystal_system orthorhombic
_space_group_IT_number 19
_space_group_name_H-M_alt 'P2_12_12_1'
_space_group_name_Hall 'P 2ac 2ab'
loop_
_symmetry_equiv_pos_site_id
_symmetry_equiv_pos_as_xyz
 1 'x,y,z'
 2 '-1/2+x,-1/2-y,-z'
 3 '-1/2-x,-y,-1/2+z'
 4 '-x,-1/2+y,-1/2-z'
loop_
_atom_site_label
_atom_site_type_symbol
_atom_site_fract_x
_atom_site_fract_y
_atom_site_fract_z
H1    H     0.29191649996859 0.44420798981846 0.22150790961692 
H2    H     0.22265981005031 0.33564339982007 0.43436875877549 
H3    H     0.22819206005209 0.11933882025007 0.72302098945695 
H4    H     0.30346759001408 0.00756636027636 0.75040513961061 
H5    H     0.38393154996823 0.99401653006573 0.59676106018581 
H6    H     0.32808318005277 0.55949051965180 0.51809389034474 
H7    H     0.45213623991021 0.08721683980928 0.29998357910579 
H8    H     0.49037531014635 0.26099453961728 0.02309069972982 
H9    H     0.49504185986622 0.49159988042473 0.84229799914353 
H10   H     0.34005560988644 0.79046725002876 0.42574292916455 
H11   H     0.46643540001139 0.71088465000830 0.89009724020391 
H12   H     0.40848149998730 0.87004055033325 0.09527194963107 
C1    C     0.29556241992798 0.35236112987854 0.35530705024609 
C2    C     0.33981336008890 0.29527475022876 0.38932639058302 
C3    C     0.38232577989566 0.35717595042006 0.28155379871589 
C4    C     0.25619231999182 0.29000986014393 0.46911920886071 
C5    C     0.34149696001331 0.16467271974800 0.51677083993040 
C6    C     0.38801096014175 0.49571052976460 0.23147676924192 
C7    C     0.42140242013767 0.27678837015458 0.22885922069401 
C8    C     0.25896131008881 0.16704580970441 0.62517202942715 
C9    C     0.30101358987743 0.10499753040215 0.64292123991634 
C10   C     0.42914682006986 0.54307644014976 0.06924722960672 
C11   C     0.38334632990929 0.09275296015788 0.49672199119306 
C12   C     0.35696947997380 0.59011400997764 0.36104019881470 
C13   C     0.42100683988707 0.14463769999565 0.33802798071153 
C14   C     0.46186472012925 0.32735723969975 0.07001589985679 
C15   C     0.46487583008812 0.45475204969144 0.97744340070455 
C16   C     0.36420281005570 0.72158711972036 0.31349212059973 
C17   C     0.43521555996607 0.67787546973817 0.01815436078896 
C18   C     0.40311746006220 0.76646720005941 0.13375151080701 
