data_stdin
_audit_creation_method 'critic2'
_audit_creation_date 2023-8-11
_chemical_formula_sum 'C18 H12'
_cell_formula_units_Z 8
_cell_length_a        12.8787302300
_cell_length_b        11.9453469100
_cell_length_c        15.7216423800
_cell_angle_alpha        90.0000
_cell_angle_beta        90.0002
_cell_angle_gamma        90.0000
_cell_volume          2418.631619
_space_group_crystal_system orthorhombic
_space_group_IT_number 61
_space_group_name_H-M_alt 'Pbca'
_space_group_name_Hall '-P 2ac 2ab'
loop_
_symmetry_equiv_pos_site_id
_symmetry_equiv_pos_as_xyz
 1 'x,y,z'
 2 '-x,-y,-z'
 3 '-1/2+x,-1/2-y,-z'
 4 '-1/2-x,-1/2+y,z'
 5 '-x,-1/2+y,-1/2-z'
 6 'x,-1/2-y,-1/2+z'
 7 '-1/2-x,-y,-1/2+z'
 8 '-1/2+x,y,-1/2-z'
loop_
_atom_site_label
_atom_site_type_symbol
_atom_site_fract_x
_atom_site_fract_y
_atom_site_fract_z
H1    H     0.14795448369147 0.09350831942361 0.75144738139658 
H2    H     0.02664285126803 0.13676663522325 0.86625364671636 
H3    H     0.84277816901755 0.18844370175816 0.83450873443982 
H4    H     0.78780061365871 0.21062911492563 0.68358540874423 
H5    H     0.82533917577377 0.20905826458604 0.53322692523826 
H6    H     0.16542830261596 0.94141392572057 0.70566544142000 
H7    H     0.95225588286226 0.18892717073841 0.41620733475662 
H8    H     0.12080635451959 0.14735882113974 0.36444227480004 
H9    H     0.29835446010009 0.06995043207154 0.38461542945155 
H10   H     0.32852907870593 0.83683547479455 0.71351492862229 
H11   H     0.41981525150441 0.96597610648161 0.46998791915915 
H12   H     0.46067904033549 0.85330184806648 0.59854699230692 
C1    C     0.06796754883351 0.11333027649408 0.73556651506371 
C2    C     0.03706659501955 0.11684898630399 0.64889231370496 
C3    C     0.10513325216096 0.08915638462117 0.57854258880081 
C4    C     0.99985910302591 0.13942974806632 0.80065010489388 
C5    C     0.93462905811616 0.15829624828405 0.63130899047004 
C6    C     0.20014490954991 0.02479970062256 0.58628351197953 
C7    C     0.07562128135520 0.12547239403420 0.49603012141818 
C8    C     0.89674097472186 0.17098942528550 0.78288408214914 
C9    C     0.86584786166942 0.18188949971606 0.69924636671217 
C10   C     0.27146718533862 0.02303694697628 0.51618370371617 
C11   C     0.90403813400508 0.18009697636055 0.54579560309614 
C12   C     0.22298017039105 0.95335561098712 0.65601811892600 
C13   C     0.97405879153146 0.16873695451169 0.48125270068692 
C14   C     0.14633189031884 0.11716793922005 0.42642843210968 
C15   C     0.24327276346805 0.07327083190236 0.43721505801318 
C16   C     0.31426350824709 0.89252973349801 0.65994558867143 
C17   C     0.36596824666403 0.96341370355714 0.52336627488257 
C18   C     0.38843386723074 0.90018484879304 0.59449835706371 
