data_stdin
_audit_creation_method 'critic2'
_audit_creation_date 2023-8-11
_chemical_formula_sum 'C18 H12'
_cell_formula_units_Z 4
_cell_length_a         8.0257611112
_cell_length_b        12.1359911900
_cell_length_c        12.5363144365
_cell_angle_alpha        90.0000
_cell_angle_beta        76.3272
_cell_angle_gamma        90.0000
_cell_volume          1186.441602
_space_group_crystal_system monoclinic
_space_group_IT_number 14
_space_group_name_H-M_alt 'P2_1/c'
_space_group_name_Hall '-P 2ybc'
loop_
_symmetry_equiv_pos_site_id
_symmetry_equiv_pos_as_xyz
 1 'x,y,z'
 2 '-x,-y,-z'
 3 '-x,-1/2+y,-1/2-z'
 4 'x,-1/2-y,-1/2+z'
loop_
_atom_site_label
_atom_site_type_symbol
_atom_site_fract_x
_atom_site_fract_y
_atom_site_fract_z
H1    H     0.42336494012180 0.91205071979062 0.06264894032025 
H2    H     0.43206366958401 0.82660655974901 0.88468831036342 
H3    H     0.70292841972594 0.74338666987068 0.77530464977067 
H4    H     0.96588066005054 0.75149276016315 0.84553118982520 
H5    H     0.11906825040846 0.81401563034094 0.97950493982905 
H6    H     0.36880191977634 0.83711780038313 0.21077900022522 
H7    H     0.12775675020005 0.93907357981872 0.13514603995639 
H8    H     0.99024949991459 0.06608171026221 0.27455625001873 
H9    H     0.72744653978191 0.14550436962104 0.39535338015203 
H10   H     0.11777923016315 0.89508014015655 0.35189850985957 
H11   H     0.41999011948080 0.13863157983513 0.46850689016776 
H12   H     0.13812148934265 0.05244019022256 0.47718173027187 
C1    C     0.54047911975344 0.87187536033037 0.01920636970064 
C2    C     0.68789919968584 0.87667081026415 0.06324204019125 
C3    C     0.69103282999975 0.93303563009261 0.16467445981768 
C4    C     0.54580045979855 0.82520160032732 0.91777788019928 
C5    C     0.84490144965311 0.83321115026914 0.99704687021619 
C6    C     0.53975322057658 0.96197397006711 0.24863927956592 
C7    C     0.85317096952505 0.96337285024090 0.18246860986403 
C8    C     0.69886453043987 0.77903645959318 0.85535952021395 
C9    C     0.84508233053171 0.78274895016623 0.89521648957178 
C10   C     0.55411332016284 0.04288445010434 0.32939108995068 
C11   C     0.00181603967468 0.84963692981345 0.02962667981283 
C12   C     0.37956857053806 0.90783885970676 0.26191148958372 
C13   C     0.00656458962936 0.91738439969125 0.11583901010954 
C14   C     0.86363570964570 0.04065722016269 0.26665032006210 
C15   C     0.71902036999520 0.08407104011235 0.33342986032842 
C16   C     0.23845443060970 0.93912718020249 0.34305517961467 
C17   C     0.40663458952566 0.07600352984736 0.40897681984672 
C18   C     0.24987925057299 0.02657279032946 0.41470945011327 
