data_stdin
_audit_creation_method 'critic2'
_audit_creation_date 2023-8-11
_chemical_formula_sum 'C18 H12'
_cell_formula_units_Z 4
_cell_length_a         8.1966855237
_cell_length_b        21.0648807400
_cell_length_c         7.3591863145
_cell_angle_alpha        89.9980
_cell_angle_beta        71.7308
_cell_angle_gamma        90.0011
_cell_volume          1206.604906
_space_group_crystal_system monoclinic
_space_group_IT_number 14
_space_group_name_H-M_alt 'P2_1/c'
_space_group_name_Hall '-P 2ybc'
loop_
_symmetry_equiv_pos_site_id
_symmetry_equiv_pos_as_xyz
 1 'x,y,z'
 2 '-x,-y,-z'
 3 '-x,-1/2+y,-1/2-z'
 4 'x,-1/2-y,-1/2+z'
loop_
_atom_site_label
_atom_site_type_symbol
_atom_site_fract_x
_atom_site_fract_y
_atom_site_fract_z
H1    H     0.45179183976841 0.00493553986316 0.67175306030368 
H2    H     0.49246048961579 0.11971255986845 0.66302627069268 
H3    H     0.23879554027422 0.19287945016066 0.73462117948474 
H4    H     0.94996910998545 0.14749842008235 0.77326660016828 
H5    H     0.77354208943197 0.05968804019632 0.74595745026907 
H6    H     0.40542955026718 0.95442746011405 0.90532787044047 
H7    H     0.73985820991421 0.94453305977162 0.69433885952389 
H8    H     0.84448667020907 0.83917252009301 0.66106103965510 
H9    H     0.06123112934171 0.75848610997020 0.67432858061131 
H10   H     0.58998692019246 0.87167209004511 0.96538736950405 
H11   H     0.31011534995043 0.72982771987977 0.76481875047889 
H12   H     0.54869777035612 0.75832188988865 0.89016800980923 
C1    C     0.33929227954239 0.03530116987740 0.70514877973438 
C2    C     0.17412209008832 0.00770568002293 0.74092321944502 
C3    C     0.14208983062418 0.93985587989301 0.74794627940876 
C4    C     0.36286779978736 0.10045928983067 0.69851443984983 
C5    C     0.03472091010828 0.05028806018163 0.75262434025628 
C6    C     0.25621019049560 0.89223563995773 0.78361781013409 
C7    C     0.98711198032921 0.91868277007537 0.72028530932095 
C8    C     0.22101771982904 0.14168223013421 0.73320210045725 
C9    C     0.06016168046934 0.11658268009998 0.75711187996411 
C10   C     0.22578351925066 0.82642256007252 0.75460714069962 
C11   C     0.87517101017742 0.02611598994581 0.74358994978703 
C12   C     0.38902524044771 0.90609333977735 0.86324224967493 
C13   C     0.85595563975652 0.96282996992191 0.71744578056615 
C14   C     0.96080590947733 0.85284895985738 0.69272115028417 
C15   C     0.07930862029319 0.80841833007013 0.70143691039186 
C16   C     0.49199845010158 0.85904593998123 0.90044177040748 
C17   C     0.33558521941379 0.77931400994143 0.78932778070277 
C18   C     0.46820359969824 0.79513537014901 0.85905348951264 
