data_stdin
_audit_creation_method 'critic2'
_audit_creation_date 2023-8-11
_chemical_formula_sum 'C18 H12'
_cell_formula_units_Z 4
_cell_length_a        15.0047775032
_cell_length_b         4.7501760167
_cell_length_c        19.9773274647
_cell_angle_alpha        89.9995
_cell_angle_beta        55.2875
_cell_angle_gamma        89.9998
_cell_volume          1170.465697
_space_group_crystal_system monoclinic
_space_group_IT_number 14
_space_group_name_H-M_alt 'P2_1/c'
_space_group_name_Hall '-P 2ybc'
loop_
_symmetry_equiv_pos_site_id
_symmetry_equiv_pos_as_xyz
 1 'x,y,z'
 2 '-x,-y,-z'
 3 '-x,-1/2+y,-1/2-z'
 4 'x,-1/2-y,-1/2+z'
loop_
_atom_site_label
_atom_site_type_symbol
_atom_site_fract_x
_atom_site_fract_y
_atom_site_fract_z
H1    H     0.44014904748345 0.61953590978349 0.47912598201342 
H2    H     0.56723732658202 0.96659208685232 0.38176291627704 
H3    H     0.52314962363654 0.24355201426053 0.29684101073196 
H4    H     0.35782551036424 0.12888175685591 0.30393262288891 
H5    H     0.20119430503114 0.82657796357182 0.35166967879208 
H6    H     0.33067843813577 0.73313992325249 0.58872141480205 
H7    H     0.08272367716593 0.43445251482369 0.43853974241678 
H8    H     0.02180003889437 0.10781284258295 0.54654577205267 
H9    H     0.02430165094247 0.91330209536650 0.66052612666374 
H10   H     0.31692373043231 0.56967802392086 0.70942779886607 
H11   H     0.08583936418738 0.93911497488593 0.74851951272352 
H12   H     0.19753066302748 0.16126732066158 0.78986995553127 
C1    C     0.41715099785752 0.74186610330724 0.44535933056221 
C2    C     0.31660869396405 0.68805855406421 0.45631572523050 
C3    C     0.23393916263998 0.50046512453948 0.51782000639126 
C4    C     0.49034264433088 0.93573888373170 0.38896594960896 
C5    C     0.30013718374264 0.81778696042973 0.39930041645340 
C6    C     0.22597794424519 0.41380883715379 0.59070052812505 
C7    C     0.15374904868851 0.40029377442285 0.50699792228226 
C8    C     0.46726896728755 0.08569072626322 0.33980089793992 
C9    C     0.37441199144815 0.02231947104939 0.34406535766551 
C10   C     0.15036663483219 0.19695720709263 0.64128987201776 
C11   C     0.21211260793905 0.72880239419441 0.39589300743995 
C12   C     0.28237984594854 0.54758733247672 0.61963324342840 
C13   C     0.14579757733724 0.51499167061839 0.44459894215942 
C14   C     0.07907391225274 0.18691537253496 0.55903986848096 
C15   C     0.07991209922871 0.08042831603406 0.62212967436532 
C16   C     0.27225002311606 0.45901783674517 0.68959584775769 
C17   C     0.14243577595929 0.10770636942954 0.71214163534587 
C18   C     0.20373479691384 0.23292157113679 0.73557536975523 
