data_stdin
_audit_creation_method 'critic2'
_audit_creation_date 2023-8-11
_chemical_formula_sum 'C18 H12'
_cell_formula_units_Z 2
_cell_length_a        10.6162920267
_cell_length_b         8.4151714878
_cell_length_c         7.8600996096
_cell_angle_alpha        89.2473
_cell_angle_beta        66.6996
_cell_angle_gamma        71.4158
_cell_volume           606.141319
_space_group_crystal_system triclinic
_space_group_IT_number 2
_space_group_name_H-M_alt 'P-1'
_space_group_name_Hall '-P 1'
loop_
_symmetry_equiv_pos_site_id
_symmetry_equiv_pos_as_xyz
 1 'x,y,z'
 2 '-x,-y,-z'
loop_
_atom_site_label
_atom_site_type_symbol
_atom_site_fract_x
_atom_site_fract_y
_atom_site_fract_z
H1    H     0.53970443983705 0.27463666942525 0.13753794026376 
H2    H     0.38448913994841 0.45692313020459 0.00387294971259 
H3    H     0.13162993989890 0.64893293960911 0.21048803983658 
H4    H     0.03291945973589 0.62580667025401 0.55022608979514 
H5    H     0.05292793023960 0.48489889020462 0.81155985959504 
H6    H     0.66817244993059 0.34955613972785 0.20983504019690 
H7    H     0.19998999039615 0.27433164947122 0.94589410955290 
H8    H     0.42341570027709 0.07583474011421 0.92314876964675 
H9    H     0.69029457983885 0.92735166021404 0.75291718042259 
H10   H     0.93294688004303 0.21794730974476 0.06203718932167 
H11   H     0.91748662994688 0.89753531052402 0.49419685967253 
H12   H     0.06141575934363 0.98433443065865 0.19696075067657 
C1    C     0.43242876003687 0.35855891948634 0.23156178020114 
C2    C     0.38400620945950 0.35391972040123 0.42711301016918 
C3    C     0.47453413958552 0.25457763046790 0.51547964022114 
C4    C     0.34324745985278 0.46037638969950 0.15490467060677 
C5    C     0.23273287025855 0.44429410958728 0.53975422958066 
C6    C     0.63269070991484 0.18702971989279 0.42779159937638 
C7    C     0.40315888030364 0.22039498025718 0.70002055985844 
C8    C     0.20029062995597 0.56488688935532 0.27029654948185 
C9    C     0.14581847050164 0.55377834943633 0.45950214948102 
C10   C     0.70899461952428 0.06479394065972 0.51411634058855 
C11   C     0.16877200048008 0.41724559995268 0.72986837954532 
C12   C     0.71957047944057 0.24219772011937 0.26608211053224 
C13   C     0.24988217999939 0.30276737000469 0.80394453006679 
C14   C     0.48344068005016 0.10301885995741 0.78429177036801 
C15   C     0.63031145969608 0.02282301009976 0.69182463032631 
C16   C     0.87008059996774 0.17064842055068 0.18487621037942 
C17   C     0.86276375023127 0.99146232031857 0.42656867028166 
C18   C     0.94292907995064 0.04099258951508 0.26251835035383 
