data_stdin
_audit_creation_method 'critic2'
_audit_creation_date 2023-8-11
_chemical_formula_sum 'C18 H12'
_cell_formula_units_Z 16
_cell_length_a        30.6944380628
_cell_length_b        39.3416959948
_cell_length_c         3.8092868954
_cell_angle_alpha        90.0383
_cell_angle_beta        90.0122
_cell_angle_gamma        89.9781
_cell_volume          4599.983875
_space_group_crystal_system triclinic
_space_group_IT_number 1
_space_group_name_H-M_alt 'P1'
_space_group_name_Hall 'P 1'
loop_
_symmetry_equiv_pos_site_id
_symmetry_equiv_pos_as_xyz
 1 'x,y,z'
 2 'x,-1/2+y,-1/2+z'
 3 '-1/2+x,y,-1/2+z'
 4 '-1/2+x,-1/2+y,z'
loop_
_atom_site_label
_atom_site_type_symbol
_atom_site_fract_x
_atom_site_fract_y
_atom_site_fract_z
H1    H     0.51971664924027 0.10965645842220 0.50616976421569 
H2    H     0.48027192014899 0.89029849344444 0.50655575078571 
H3    H     0.73026729301981 0.35962526492711 0.75589390517280 
H4    H     0.76970316193228 0.14031637013821 0.75675973694050 
H5    H     0.48833632306389 0.05331370236795 0.58178726808810 
H6    H     0.51167506184681 0.94665378039052 0.58163549180816 
H7    H     0.76168852003607 0.30327138837716 0.83120098157232 
H8    H     0.73826377635418 0.19668036542748 0.83146066378725 
H9    H     0.53591522097032 0.00375503783070 0.74015867912159 
H10   H     0.46412296941763 0.99625141865692 0.73971138107502 
H11   H     0.71416541824191 0.25372866986568 0.99000233255378 
H12   H     0.78579044757930 0.24628598732875 0.98883388427488 
H13   H     0.61584745483691 0.01175863829068 0.76460063932458 
H14   H     0.38419271664469 0.98826571119507 0.76448430545254 
H15   H     0.63423197890474 0.26175923384214 0.01536858625875 
H16   H     0.86573343176659 0.23829393412490 0.01351006499728 
H17   H     0.67984750640427 0.04686448557005 0.70123034055382 
H18   H     0.32017738098440 0.95316299980019 0.70135161116177 
H19   H     0.57021222006311 0.29688630178625 0.95292342822554 
H20   H     0.92975877830468 0.20318188369745 0.95081191890985 
H21   H     0.52656359141921 0.14109700228790 0.90092384364120 
H22   H     0.47340890280551 0.85892150483256 0.90163849164919 
H23   H     0.72345611201817 0.39107394504146 0.15095903377052 
H24   H     0.77661002815438 0.10895045406753 0.15177976360155 
H25   H     0.71290206212260 0.10169487628869 0.52751775690368 
H26   H     0.28709118547325 0.89831340502445 0.52786362256801 
H27   H     0.53709167972101 0.35171344132158 0.77913288198979 
H28   H     0.96288270623468 0.14831710395278 0.77759151462825 
H29   H     0.70646486734502 0.16009573539816 0.35451078317989 
H30   H     0.29350301539736 0.83988060863766 0.35489607068523 
H31   H     0.54348651750508 0.41010290792954 0.60532345562778 
H32   H     0.95650629484390 0.08987950815928 0.60506379676662 
H33   H     0.66436191358829 0.21371328994951 0.32748529492833 
H34   H     0.33560631066087 0.78626101670631 0.32749594317677 
H35   H     0.58556268984569 0.46370250987626 0.57758805179549 
H36   H     0.91445660434927 0.03625970185727 0.57806424109407 
H37   H     0.48921753184106 0.19563698124116 0.94225563875604 
H38   H     0.51075182484025 0.80437990489544 0.94288789112508 
H39   H     0.76077618848140 0.44561058044674 0.19204675828308 
H40   H     0.73930063239183 0.05441313329879 0.19292748798380 
H41   H     0.59904711060905 0.24543355978492 0.46863379919145 
H42   H     0.40095077902864 0.75455681043508 0.46804469525576 
H43   H     0.65090370162062 0.49541048497279 0.71805389991276 
H44   H     0.84913255962247 0.00456882731155 0.71851564231430 
H45   H     0.52433940169385 0.24850934813231 0.71510374518906 
H46   H     0.47565119651269 0.75149779582068 0.71490703045022 
H47   H     0.72561979282510 0.49847827591660 0.96439421721553 
H48   H     0.77443321013133 0.00152386470563 0.96496952347847 
C1    C     0.54095422109386 0.08891938736404 0.58381891706546 
C2    C     0.45904698707564 0.91105690645885 0.58404884322574 
C3    C     0.70905727749619 0.33889505213710 0.83377588959553 
C4    C     0.79091879219567 0.16107709238597 0.83402647766409 
C5    C     0.58622159239799 0.09499149948500 0.62472714651588 
C6    C     0.41377984985064 0.90500257996868 0.62502702708989 
C7    C     0.66379570732000 0.34497840213977 0.87513745938936 
C8    C     0.83619403916778 0.15502240832476 0.87494741174361 
C9    C     0.60634641023275 0.12817057765370 0.59179468045296 
C10   C     0.39364097363157 0.87182363918933 0.59216996523852 
C11   C     0.64364917984209 0.37816059833089 0.84222723661632 
C12   C     0.85635699788163 0.12183962271615 0.84226941274427 
C13   C     0.52317866219706 0.05683468572811 0.62231952947630 
C14   C     0.47683566770283 0.94314564074615 0.62227398581940 
C15   C     0.72685262212409 0.30680247616162 0.87209613541340 
C16   C     0.77311075363404 0.19317338468158 0.87202041481753 
C17   C     0.61347418202867 0.06578718366677 0.67516078784090 
C18   C     0.38654093551166 0.93422087906984 0.67534172907356 
C19   C     0.63656763034215 0.31578610832934 0.92593704027301 
C20   C     0.86341357491539 0.18424058635733 0.92497597493267 
C21   C     0.58336853284110 0.16016530612262 0.62690056616887 
C22   C     0.41661383744815 0.83983091156106 0.62722463535253 
C23   C     0.66662006547966 0.41014908816133 0.87699473535350 
C24   C     0.83341135010786 0.08984962605541 0.87745902665696 
C25   C     0.65181958834070 0.12936497189851 0.52476496885663 
C26   C     0.34816467328733 0.87062754052417 0.52513622868679 
C27   C     0.59816463505915 0.37936507490756 0.77553852431979 
C28   C     0.90183017151666 0.12063794108421 0.77517754391489 
C29   C     0.54993003373841 0.02891885762574 0.70450561644855 
C30   C     0.45009868445584 0.97108247035267 0.70430669819535 
C31   C     0.70013189498722 0.27889734686494 0.95454476272460 
C32   C     0.79983207800436 0.22111213761502 0.95368694408346 
C33   C     0.59440098402766 0.03344105760495 0.72403002264392 
C34   C     0.40562868360844 0.96657174421216 0.72398790933242 
C35   C     0.65566292313222 0.28343236738683 0.97458509272188 
C36   C     0.84430800633342 0.21660042353285 0.97331726024895 
C37   C     0.60469932947311 0.19103928342849 0.52396153539035 
C38   C     0.39528178950187 0.80895087174197 0.52402063741710 
C39   C     0.64526560918460 0.44102404021912 0.77391097182511 
C40   C     0.85476426114109 0.05896231564037 0.77438456154683 
C41   C     0.65961733180595 0.06919619928212 0.65546648347526 
C42   C     0.34039597528667 0.93081826203519 0.65568743802690 
C43   C     0.59041841205740 0.31920891188906 0.90676510186145 
C44   C     0.90956058762462 0.18083467101867 0.90530586316698 
C45   C     0.54173432890184 0.16332801713562 0.78523814555064 
C46   C     0.45824396004730 0.83668072577907 0.78573552228481 
C47   C     0.70826759121211 0.41330698120081 0.03520617184309 
C48   C     0.79178610091695 0.08670514020492 0.03590923254293 
C49   C     0.67779862451611 0.09952730854124 0.56291762786444 
C50   C     0.32219744320810 0.90047643897004 0.56325020216171 
C51   C     0.57220445124979 0.34954109825368 0.81418536513707 
C52   C     0.92777705825080 0.15048415462044 0.81304893336400 
C53   C     0.67204581825637 0.16051791927096 0.42455262383573 
C54   C     0.32792771198082 0.83946460680649 0.42487440400331 
C55   C     0.57791494007951 0.41051998755690 0.67517003012183 
C56   C     0.92208700232628 0.08946645885978 0.67508321243459 
C57   C     0.64891339350432 0.19012161889077 0.41033715227403 
C58   C     0.35106031256337 0.80985997645930 0.41044320439459 
C59   C     0.60103508027615 0.44011211915533 0.66054626993460 
C60   C     0.89898212745696 0.05986369638426 0.66085911928314 
C61   C     0.52092430306648 0.19436480993388 0.81501601183203 
C62   C     0.47905393281104 0.80564608650664 0.81541507572169 
C63   C     0.72906527273600 0.44433712521065 0.06480204854661 
C64   C     0.77099654572254 0.05567632621166 0.06554908663987 
C65   C     0.58236925721436 0.22238770009826 0.55163509287254 
C66   C     0.41762048849107 0.77760650047206 0.55142428996366 
C67   C     0.66759160382333 0.47236322622711 0.80124052127636 
C68   C     0.83244776149521 0.02762403031792 0.80178023058712 
C69   C     0.54093138702393 0.22416500176770 0.69061929887024 
C70   C     0.45905483242597 0.77583956338714 0.69059944590103 
C71   C     0.70903812515863 0.47413667573706 0.94016031474264 
C72   C     0.79101245194075 0.02586331813614 0.94077617410794 
