data_stdin
_audit_creation_method 'critic2'
_audit_creation_date 2023-8-11
_chemical_formula_sum 'C18 H12'
_cell_formula_units_Z 4
_cell_length_a         3.8754325843
_cell_length_b         9.8643154436
_cell_length_c        30.4326008736
_cell_angle_alpha        89.9967
_cell_angle_beta        89.6093
_cell_angle_gamma        90.0057
_cell_volume          1163.365305
_space_group_crystal_system monoclinic
_space_group_IT_number 14
_space_group_name_H-M_alt 'P2_1/c'
_space_group_name_Hall '-P 2ybc'
loop_
_symmetry_equiv_pos_site_id
_symmetry_equiv_pos_as_xyz
 1 'x,y,z'
 2 '-x,-y,-z'
 3 '-x,-1/2+y,-1/2-z'
 4 'x,-1/2-y,-1/2+z'
loop_
_atom_site_label
_atom_site_type_symbol
_atom_site_fract_x
_atom_site_fract_y
_atom_site_fract_z
H1    H     0.89594215081340 0.33897498957772 0.20074252995646 
H2    H     0.01092966938689 0.25778257029567 0.27446595994881 
H3    H     0.35331149118499 0.04607170049323 0.28631937004257 
H4    H     0.52775721061574 0.90762874991163 0.22180157993823 
H5    H     0.52406115075556 0.86487286974469 0.14324538001761 
H6    H     0.21102129023825 0.46230205973091 0.16918021990374 
H7    H     0.33633470930054 0.92990399977232 0.06845825999648 
H8    H     0.06485869924855 0.08413254975852 0.01912197987691 
H9    H     0.79765528064238 0.30627885993949 0.00249985993161 
H10   H     0.04390879960902 0.69093046032374 0.14720497012963 
H11   H     0.69364323930078 0.53983940979613 0.02293395015432 
H12   H     0.76133564965264 0.73172482961760 0.07494680989932 
C1    C     0.05354183103787 0.24906922992979 0.20456205987309 
C2    C     0.17125742878441 0.17826519954412 0.16681633001828 
C3    C     0.11576780986335 0.22465705958387 0.12225430991703 
C4    C     0.11430622968743 0.20157871008628 0.24653854001290 
C5    C     0.32830628976352 0.04844743009262 0.17389929000580 
C6    C     0.02420752916307 0.36248687018330 0.11051882012446 
C7    C     0.15260563992223 0.12881578029514 0.08777547012892 
C8    C     0.29826276079221 0.08050451049091 0.25311572009263 
C9    C     0.39692496006007 0.00419166989880 0.21717604014981 
C10   C     0.89644325080823 0.38948000013117 0.06726614991412 
C11   C     0.39947437095873 0.96215886010427 0.13738458991064 
C12   C     0.07916310095176 0.47601222049818 0.13817204997222 
C13   C     0.29962103096955 0.99879627985044 0.09612598015585 
C14   C     0.03985268124365 0.16137832005951 0.04452549986277 
C15   C     0.89646607993435 0.28424303044551 0.03514377998185 
C16   C     0.98860824987397 0.60589032013411 0.12554077991792 
C17   C     0.79438008017298 0.52240407992356 0.05575581985804 
C18   C     0.83539840102637 0.62939771990563 0.08447576016740 
