data_stdin
_audit_creation_method 'critic2'
_audit_creation_date 2023-8-11
_chemical_formula_sum 'C18 H12'
_cell_formula_units_Z 4
_cell_length_a        20.6634109758
_cell_length_b         3.7951192145
_cell_length_c        15.3701114442
_cell_angle_alpha        89.9924
_cell_angle_beta        81.2146
_cell_angle_gamma        89.9942
_cell_volume          1191.183975
_space_group_crystal_system monoclinic
_space_group_IT_number 14
_space_group_name_H-M_alt 'P2_1/c'
_space_group_name_Hall '-P 2ybc'
loop_
_symmetry_equiv_pos_site_id
_symmetry_equiv_pos_as_xyz
 1 'x,y,z'
 2 '-x,-y,-z'
 3 '-x,-1/2+y,-1/2-z'
 4 'x,-1/2-y,-1/2+z'
loop_
_atom_site_label
_atom_site_type_symbol
_atom_site_fract_x
_atom_site_fract_y
_atom_site_fract_z
H1    H     0.72872324004172 0.16628225010691 0.26101069028658 
H2    H     0.62216230987262 0.07396660935115 0.35085003976627 
H3    H     0.52967124020080 0.80793704119576 0.28450311974717 
H4    H     0.54387790011059 0.70738438052039 0.12342525998165 
H5    H     0.60875830002681 0.75988940038125 0.97818357982344 
H6    H     0.79469621011830 0.77279475090101 0.24339328016107 
H7    H     0.71074528011311 0.94656440954205 0.88385156979236 
H8    H     0.82090682004500 0.17867830110776 0.86667852022113 
H9    H     0.92234394023358 0.31229492070221 0.92735533979943 
H10   H     0.90039006999593 0.80986019892477 0.29455773970099 
H11   H     0.98598274019897 0.26596010010773 0.04739871023916 
H12   H     0.99703467990849 0.07404235091542 0.19869124017762 
C1    C     0.68975666987259 0.04722232058468 0.23104463989090 
C2    C     0.70116667016940 0.96487902038252 0.14005693971479 
C3    C     0.76393328014691 0.00833824903684 0.08473794016401 
C4    C     0.62917192996497 0.99812879960347 0.28173121976341 
C5    C     0.64558480013395 0.86130582930031 0.10060785991629 
C6    C     0.82592711020901 0.02536992958813 0.11749002998170 
C7    C     0.76479615996379 0.03219699980765 0.99246854031831 
C8    C     0.57677972012456 0.85830010952943 0.24411772025699 
C9    C     0.58488861997299 0.79816144120067 0.15453604975874 
C10   C     0.88295075981139 0.14454263887532 0.05996576006488 
C11   C     0.65129625010489 0.84169979078043 0.00718291030017 
C12   C     0.83508851010688 0.90034962974591 0.20170070988513 
C13   C     0.70781277004486 0.94268261077320 0.95522870993465 
C14   C     0.82270725990119 0.14424672002962 0.93666111013467 
C15   C     0.87890065984853 0.21599984031898 0.96988732020382 
C16   C     0.89533051009259 0.91636781993967 0.23013771007414 
C17   C     0.94354212998060 0.16916648875840 0.09173159968593 
C18   C     0.94983013995257 0.06048314090741 0.17569922029562 
