data_stdin
_audit_creation_method 'critic2'
_audit_creation_date 2023-8-11
_chemical_formula_sum 'C18 H12'
_cell_formula_units_Z 2
_cell_length_a         9.8758904269
_cell_length_b         5.8215876802
_cell_length_c        10.6378074706
_cell_angle_alpha        89.9999
_cell_angle_beta        83.6889
_cell_angle_gamma        90.0005
_cell_volume           607.896804
_space_group_crystal_system monoclinic
_space_group_IT_number 7
_space_group_name_H-M_alt 'Pc'
_space_group_name_Hall 'P -2yc'
loop_
_symmetry_equiv_pos_site_id
_symmetry_equiv_pos_as_xyz
 1 'x,y,z'
 2 '-1/2+x,-y,-1/2+z'
loop_
_atom_site_label
_atom_site_type_symbol
_atom_site_fract_x
_atom_site_fract_y
_atom_site_fract_z
H1    H     0.00835779010172 0.06563892071825 0.98759355003197 
H2    H     0.14990513966907 0.74567938043471 0.90099465002725 
H3    H     0.35377070039505 0.62395706027940 0.00222528972805 
H4    H     0.42080491016088 0.84643043942081 0.18575621030181 
H5    H     0.38761931992736 0.16370270967741 0.33249109959006 
H6    H     0.85470280025020 0.00772402079104 0.11188840027108 
H7    H     0.26021126992479 0.51295433036945 0.40788670037095 
H8    H     0.07419211988357 0.77215313009388 0.40105056995685 
H9    H     0.84340039954546 0.86200954967927 0.34623490961121 
H10   H     0.61701788993791 0.07735712935222 0.08659304995418 
H11   H     0.64044957031705 0.74432589048874 0.25777363036708 
H12   H     0.50674122978958 0.45163842027201 0.15187132988052 
C1    C     0.09369614992160 0.01097764915952 0.03649874019743 
C2    C     0.12216666975661 0.12951768918074 0.14708292008055 
C3    C     0.03622041000134 0.30817070071656 0.20808714031609 
C4    C     0.17503267011689 0.83297972073914 0.98585183006924 
C5    C     0.24754462980036 0.07349557962668 0.19660460019661 
C6    C     0.89422526968612 0.34327516007884 0.18964889986324 
C7    C     0.09389431997751 0.45522335949315 0.29450931024937 
C8    C     0.29166734985224 0.76637135067401 0.04181020990243 
C9    C     0.32802840018801 0.88887854052724 0.14397748006159 
C10   C     0.82637115025260 0.54818145966672 0.23825347028382 
C11   C     0.29262867983969 0.20944034990126 0.29545492017181 
C12   C     0.81240380988474 0.17541727924067 0.13720346976707 
C13   C     0.22203483042589 0.40106583007869 0.33766786974957 
C14   C     0.02317333049137 0.65680105004759 0.34112128990703 
C15   C     0.89578110021619 0.70664795952787 0.31075356014555 
C16   C     0.67618570033434 0.21330008075718 0.12490606993742 
C17   C     0.68791223042606 0.58565368056360 0.22072632030079 
C18   C     0.61356043951555 0.42298408997422 0.16336415029640 
