data_stdin
_audit_creation_method 'critic2'
_audit_creation_date 2023-8-11
_chemical_formula_sum 'C18 H12'
_cell_formula_units_Z 8
_cell_length_a         7.6325905301
_cell_length_b        20.1607061301
_cell_length_c        15.6909766700
_cell_angle_alpha        90.0001
_cell_angle_beta        89.9999
_cell_angle_gamma        89.9996
_cell_volume          2414.502615
_space_group_crystal_system orthorhombic
_space_group_IT_number 61
_space_group_name_H-M_alt 'Pbca'
_space_group_name_Hall '-P 2ac 2ab'
loop_
_symmetry_equiv_pos_site_id
_symmetry_equiv_pos_as_xyz
 1 'x,y,z'
 2 '-x,-y,-z'
 3 '-1/2-x,-y,-1/2+z'
 4 '-1/2+x,y,-1/2-z'
 5 '-1/2+x,-1/2-y,-z'
 6 '-1/2-x,-1/2+y,z'
 7 '-x,-1/2+y,-1/2-z'
 8 'x,-1/2-y,-1/2+z'
loop_
_atom_site_label
_atom_site_type_symbol
_atom_site_fract_x
_atom_site_fract_y
_atom_site_fract_z
H1    H     0.35581536983299 0.77676359814307 0.36581789247427 
H2    H     0.31541089628648 0.89300598077368 0.33190743202957 
H3    H     0.57475634397283 0.96928755717024 0.31843321883484 
H4    H     0.87098625996958 0.92518396198013 0.34848017931210 
H5    H     0.06269200520586 0.83780804673144 0.39454174699170 
H6    H     0.36874784345043 0.70802586298885 0.28527198529955 
H7    H     0.10794523843112 0.72139100772403 0.44093853643175 
H8    H     0.00508270493267 0.61384457140878 0.46881756020666 
H9    H     0.77127635697643 0.52839789776303 0.46854689513443 
H10   H     0.15475871197117 0.61924467105593 0.27497435925982 
H11   H     0.48259227263820 0.49305486840456 0.42723517626584 
H12   H     0.20306757475993 0.51143239218175 0.34968661030440 
C1    C     0.47126038836133 0.80732207010763 0.35745514239693 
C2    C     0.64025019206884 0.77922369399395 0.36860493584323 
C3    C     0.67262749353015 0.70930687771405 0.38476276642601 
C4    C     0.44773090815996 0.87398305820705 0.34021332141647 
C5    C     0.78518351950922 0.82467395112572 0.36957899400743 
C6    C     0.54467546911024 0.65680855224840 0.37233712918943 
C7    C     0.84128106037035 0.69097866467761 0.41529284089119 
C8    C     0.59228065624621 0.91701570481946 0.33392735956314 
C9    C     0.75769773212085 0.89243623770066 0.35023279717992 
C10   C     0.58018965997139 0.59209583520098 0.40665450736207 
C11   C     0.95533848091943 0.80221452238570 0.39326961932654 
C12   C     0.39073099828368 0.66327139495955 0.32210339295523 
C13   C     0.98055739161233 0.73815887769842 0.41835806321750 
C14   C     0.87494291111996 0.62511714984602 0.44435616993242 
C15   C     0.74654626904253 0.57805646138850 0.44386212474007 
C16   C     0.27079645939331 0.61215702591270 0.31405461413690 
C17   C     0.45368685732563 0.54109970466775 0.39887208531886 
C18   C     0.29929765003596 0.55104368687241 0.35493576944213 
