data_stdin
_audit_creation_method 'critic2'
_audit_creation_date 2023-8-11
_chemical_formula_sum 'C18 H12'
_cell_formula_units_Z 8
_cell_length_a        14.8779311700
_cell_length_b         7.6559915303
_cell_length_c        21.5731086403
_cell_angle_alpha        90.0003
_cell_angle_beta        89.9998
_cell_angle_gamma        90.0005
_cell_volume          2457.291736
_space_group_crystal_system orthorhombic
_space_group_IT_number 61
_space_group_name_H-M_alt 'Pbca'
_space_group_name_Hall '-P 2ac 2ab'
loop_
_symmetry_equiv_pos_site_id
_symmetry_equiv_pos_as_xyz
 1 'x,y,z'
 2 '-x,-y,-z'
 3 '-1/2+x,-1/2-y,-z'
 4 '-1/2-x,-1/2+y,z'
 5 '-x,-1/2+y,-1/2-z'
 6 'x,-1/2-y,-1/2+z'
 7 '-1/2-x,-y,-1/2+z'
 8 '-1/2+x,y,-1/2-z'
loop_
_atom_site_label
_atom_site_type_symbol
_atom_site_fract_x
_atom_site_fract_y
_atom_site_fract_z
H1    H     0.06672731481644 0.82160967747418 0.98284846121633 
H2    H     0.04145350440093 0.67896465772663 0.08268366754236 
H3    H     0.88702428818938 0.59315059895406 0.11530398406329 
H4    H     0.75743017313467 0.66311048843043 0.04708346539444 
H5    H     0.69553720486123 0.81246299219895 0.95861425367392 
H6    H     0.09157160197661 0.69784577719632 0.90513377495116 
H7    H     0.71644244632714 0.00349839189024 0.86714541895811 
H8    H     0.81242488302632 0.16520736459616 0.79855219314759 
H9    H     0.96126805204754 0.22485406328902 0.75253119493791 
H10   H     0.23226907822828 0.72926593024459 0.84790971471323 
H11   H     0.11814475054668 0.14884444135706 0.74089470996510 
H12   H     0.24983639530457 0.96130837696365 0.76784939040692 
C1    C     0.99941650399429 0.77791015140560 0.99440272371150 
C2    C     0.92751911954380 0.81464120755757 0.95311874821125 
C3    C     0.93866637467130 0.90056029287265 0.89364759748097 
C4    C     0.98509868209809 0.70016330463425 0.05138131939766 
C5    C     0.83834999415490 0.77923679862604 0.97504334942684 
C6    C     0.02323136485807 0.91406918490892 0.86052418207281 
C7    C     0.86180343926962 0.97959239288282 0.86639257418451 
C8    C     0.89776160479018 0.65346392376637 0.07019865184565 
C9    C     0.82573614211782 0.69313780770497 0.03242869443626 
C10   C     0.03108989493247 0.03547671390787 0.81007079635802 
C11   C     0.76256141537172 0.84133885714972 0.94117173022120 
C12   C     0.09784933136701 0.80332796690220 0.87183050080282 
C13   C     0.77412100783936 0.94517007404109 0.89037437922580 
C14   C     0.87187803044558 0.09731091246527 0.81550779664845 
C15   C     0.95408490027676 0.13066127698799 0.78997696241511 
C16   C     0.17723144036735 0.81941470572552 0.83890118205730 
C17   C     0.11397411209550 0.05331272610198 0.77833405078776 
C18   C     0.18660656846051 0.94847798266739 0.79286583660630 
