data_stdin
_audit_creation_method 'critic2'
_audit_creation_date 2023-8-11
_chemical_formula_sum 'C18 H12'
_cell_formula_units_Z 4
_cell_length_a        15.4306782501
_cell_length_b         7.0378146200
_cell_length_c        10.7986084014
_cell_angle_alpha        90.0000
_cell_angle_beta        89.9989
_cell_angle_gamma        90.0000
_cell_volume          1172.710007
_space_group_crystal_system orthorhombic
_space_group_IT_number 19
_space_group_name_H-M_alt 'P2_12_12_1'
_space_group_name_Hall 'P 2ac 2ab'
loop_
_symmetry_equiv_pos_site_id
_symmetry_equiv_pos_as_xyz
 1 'x,y,z'
 2 '-1/2+x,-1/2-y,-z'
 3 '-x,-1/2+y,-1/2-z'
 4 '-1/2-x,-y,-1/2+z'
loop_
_atom_site_label
_atom_site_type_symbol
_atom_site_fract_x
_atom_site_fract_y
_atom_site_fract_z
H1    H     0.75903896010431 0.86864241932933 0.37841433993962 
H2    H     0.64776128005245 0.94634370027316 0.22479631983975 
H3    H     0.67766451974672 0.90958936052002 0.00011677027048 
H4    H     0.82649191992594 0.82572089952097 0.93034008982452 
H5    H     0.97932602022393 0.77361452038363 0.97640006955993 
H6    H     0.78229050010206 0.60186964035380 0.44630367016278 
H7    H     0.09820642999424 0.76943807033134 0.12982627003330 
H8    H     0.14945644989863 0.78001621028124 0.33923978988114 
H9    H     0.12291528970654 0.77576686980768 0.56536840988945 
H10   H     0.76557287008474 0.52241630993412 0.66504001986675 
H11   H     0.02639471994834 0.70726416950438 0.73736099971287 
H12   H     0.88582755969566 0.58409599067881 0.81484939011126 
C1    C     0.77360294014649 0.84987549057507 0.28086025990202 
C2    C     0.85817948020590 0.79238019940918 0.24508291954199 
C3    C     0.92695439999272 0.75556584005850 0.33310093037801 
C4    C     0.71069179974329 0.89433100028945 0.19445823963675 
C5    C     0.87766029973796 0.79275580974433 0.11523283011196 
C6    C     0.91312932012669 0.71205314008001 0.46268244001992 
C7    C     0.01360713975172 0.76382456989311 0.28965716016075 
C8    C     0.72828080021041 0.87768868012588 0.06706250006154 
C9    C     0.81069065019922 0.82900267046896 0.02867573027058 
C10   C     0.98462067984762 0.72779283054079 0.54700497023263 
C11   C     0.96525289974594 0.77233570941667 0.07523402986693 
C12   C     0.83476890999739 0.63525531018740 0.50974796995676 
C13   C     0.03087506983605 0.76837645960570 0.15993801974006 
C14   C     0.08377665013692 0.77001002034272 0.37544476974755 
C15   C     0.06930310025918 0.76521552977682 0.50013079020436 
C16   C     0.82529566012696 0.58877315009013 0.63346757974505 
C17   C     0.97190054000471 0.68858972973685 0.67438212965542 
C18   C     0.89354858016641 0.62037125060285 0.71746285982026 
