data_stdin
_audit_creation_method 'critic2'
_audit_creation_date 2023-8-11
_chemical_formula_sum 'C18 H12'
_cell_formula_units_Z 8
_cell_length_a        32.4268773812
_cell_length_b         3.8580203009
_cell_length_c        19.6564283512
_cell_angle_alpha        90.1185
_cell_angle_beta        70.7095
_cell_angle_gamma        89.7793
_cell_volume          2320.992985
_space_group_crystal_system triclinic
_space_group_IT_number 2
_space_group_name_H-M_alt 'P-1'
_space_group_name_Hall '-P 1'
loop_
_symmetry_equiv_pos_site_id
_symmetry_equiv_pos_as_xyz
 1 'x,y,z'
 2 '-x,-y,-z'
 3 '-1/2+x,-1/2+y,z'
 4 '-1/2-x,-1/2-y,-z'
loop_
_atom_site_label
_atom_site_type_symbol
_atom_site_fract_x
_atom_site_fract_y
_atom_site_fract_z
H1    H     0.07574849004252 0.71144876930384 0.15649381995974 
H2    H     0.92408814002686 0.70895632106753 0.34359089010143 
H3    H     0.09111954015932 0.53027851005373 0.03141106976734 
H4    H     0.90894196002458 0.52723709038922 0.46837566986081 
H5    H     0.16704808995212 0.38123432118537 0.95398718989045 
H6    H     0.83317613988540 0.37871869872204 0.54560222999609 
H7    H     0.22797262991079 0.45935667907190 0.00295207018163 
H8    H     0.77216189998478 0.45696822985630 0.49673714986640 
H9    H     0.25507670983388 0.64511355091180 0.09721527023459 
H10   H     0.74483912995814 0.64258469070468 0.40274151978466 
H11   H     0.06127965997019 0.36595719039740 0.23218345988954 
H12   H     0.93900406017470 0.36399158058745 0.26727156988962 
H13   H     0.24122905000208 0.90436068042543 0.21870355983109 
H14   H     0.75837073010989 0.90236629884874 0.28167012999495 
H15   H     0.19319228010586 0.07446399110563 0.33385894020388 
H16   H     0.80619578004778 0.07300381997831 0.16683030977110 
H17   H     0.11985030987041 0.08900155878106 0.42690587017701 
H18   H     0.87953616995212 0.08868606002192 0.07385266026786 
H19   H     0.99192469988969 0.32489306115486 0.32995360022810 
H20   H     0.00842514008242 0.32405704072404 0.16946528023710 
H21   H     0.04466903008057 0.90949368109845 0.46824396990357 
H22   H     0.95497386004505 0.91030872950202 0.03226483008094 
H23   H     0.98196396014472 0.60925205875886 0.44887866992717 
H24   H     0.01805071993959 0.60987031930269 0.05108997004963 
C1    C     0.10884744000724 0.63508106046474 0.12517883007758 
C2    C     0.89108276994465 0.63252230980250 0.37478297024804 
C3    C     0.14226942989441 0.65114905994209 0.15687665010865 
C4    C     0.85764186999409 0.64890775901132 0.34311468025312 
C5    C     0.13475587997336 0.73101671070203 0.23219416996538 
C6    C     0.86506369999899 0.72929335898088 0.26793481004534 
C7    C     0.11764544987394 0.54013525065374 0.05384910989328 
C8    C     0.88239909014554 0.53736259078693 0.44596513984876 
C9    C     0.18629546011639 0.60373678995558 0.10954004983546 
C10   C     0.81367094999291 0.60135428053547 0.39036717022131 
C11   C     0.09311274997148 0.69464890025840 0.28922653016553 
C12   C     0.90676238998245 0.69344941955347 0.21085155984278 
C13   C     0.17103562982604 0.84379828961073 0.25158988014406 
C14   C     0.82864358997491 0.84211126971136 0.24871871984889 
C15   C     0.16054730006045 0.46087120950001 0.00973627019424 
C16   C     0.83958690011659 0.45831606931674 0.48996511982388 
C17   C     0.19426175000967 0.49966318009603 0.03728501020093 
C18   C     0.80582709990146 0.49718652129310 0.46246765987383 
C19   C     0.08817625009783 0.82937257966428 0.35961312983149 
C20   C     0.91153995007332 0.82882744044793 0.14071192023879 
C21   C     0.22190064004603 0.68185045105407 0.13420793022621 
C22   C     0.77797058006129 0.67949234043812 0.36581239010427 
C23   C     0.05726545008894 0.50776808110420 0.28162844006599 
C24   C     0.94284382006102 0.50641640091090 0.21810931024206 
C25   C     0.21429561997253 0.81923457002185 0.20128375974899 
C26   C     0.78540909985520 0.81718966034180 0.29896149020831 
C27   C     0.16484213002777 0.97549659913707 0.32214175017383 
C28   C     0.83467806999976 0.97426628977866 0.17839504985628 
C29   C     0.12449887018837 0.98109387901018 0.37364508979319 
C30   C     0.87501983996486 0.98042274069748 0.12692401977937 
C31   C     0.01807690996482 0.47984851883942 0.33745297979028 
C32   C     0.98207397001751 0.47902859061141 0.16224365986412 
C33   C     0.04764537985927 0.79959122996481 0.41570067018904 
C34   C     0.95211974000068 0.79969287038036 0.08458958000433 
C35   C     0.01274555992463 0.63313577083177 0.40483435996950 
C36   C     0.98722694993387 0.63311990045556 0.09515940997862 
