data_stdin
_audit_creation_method 'critic2'
_audit_creation_date 2023-8-11
_chemical_formula_sum 'C18 H12'
_cell_formula_units_Z 4
_cell_length_a         7.5199590509
_cell_length_b         8.0623628823
_cell_length_c        20.8133444320
_cell_angle_alpha        90.0014
_cell_angle_beta        69.4154
_cell_angle_gamma        90.0007
_cell_volume          1181.318543
_space_group_crystal_system monoclinic
_space_group_IT_number 14
_space_group_name_H-M_alt 'P2_1/c'
_space_group_name_Hall '-P 2ybc'
loop_
_symmetry_equiv_pos_site_id
_symmetry_equiv_pos_as_xyz
 1 'x,y,z'
 2 '-x,-y,-z'
 3 '-x,-1/2+y,-1/2-z'
 4 'x,-1/2-y,-1/2+z'
loop_
_atom_site_label
_atom_site_type_symbol
_atom_site_fract_x
_atom_site_fract_y
_atom_site_fract_z
H1    H     0.92886275037472 0.80995107027001 0.86445385981282 
H2    H     0.97357336967291 0.60632736005883 0.94338444011592 
H3    H     0.86139592926122 0.66274179949667 0.06945753011545 
H4    H     0.71209234955670 0.93388358985518 0.11342171007653 
H5    H     0.62801199926886 0.21171044991023 0.09375192007971 
H6    H     0.71188633985323 0.81538883038358 0.83654766014918 
H7    H     0.63293402974789 0.43888084020363 0.01267539983184 
H8    H     0.68635186935239 0.53811942940265 0.90031291003158 
H9    H     0.73218284978979 0.48945381037562 0.77762891995485 
H10   H     0.69756257943103 0.77451254019645 0.72245654993211 
H11   H     0.72808048943698 0.30161362044751 0.68907503016949 
H12   H     0.70851894015401 0.01669067058682 0.64643180996924 
C1    C     0.87030135066128 0.83601061996856 0.91902897990630 
C2    C     0.77828266986034 0.98947181016725 0.94246750004788 
C3    C     0.74529585952205 0.11446530042420 0.89775114000063 
C4    C     0.89882476047754 0.72108364009451 0.96375949017135 
C5    C     0.72853163992593 0.02543715004108 0.01414867011849 
C6    C     0.74284680990028 0.08311440985144 0.82934168001429 
C7    C     0.70704580025602 0.27883235017470 0.92356110007678 
C8    C     0.83630354003052 0.75278406009904 0.03468284982388 
C9    C     0.75419826970988 0.90374312962799 0.05907130976874 
C10   C     0.73889124032217 0.22141912951597 0.78634052018411 
C11   C     0.66618367962189 0.18749863009419 0.03909108997381 
C12   C     0.72571778965357 0.92274469007537 0.80377465012440 
C13   C     0.66643870005648 0.31189953957627 0.99464704981542 
C14   C     0.70538007970905 0.41317186027327 0.87909632997263 
C15   C     0.72922391967179 0.38644246944188 0.81187446989950 
C16   C     0.71504188980484 0.89927553976085 0.73936635018122 
C17   C     0.73141818989533 0.19382564993329 0.72020055010612 
C18   C     0.72044794957422 0.03566314944439 0.69652317991737 
