data_stdin
_audit_creation_method 'critic2'
_audit_creation_date 2023-8-11
_chemical_formula_sum 'C18 H12'
_cell_formula_units_Z 8
_cell_length_a        10.4355531517
_cell_length_b        11.8312508607
_cell_length_c        18.8334324249
_cell_angle_alpha        90.0004
_cell_angle_beta        87.3142
_cell_angle_gamma        89.9991
_cell_volume          2322.727691
_space_group_crystal_system monoclinic
_space_group_IT_number 15
_space_group_name_H-M_alt 'C2/c'
_space_group_name_Hall '-C 2yc'
loop_
_symmetry_equiv_pos_site_id
_symmetry_equiv_pos_as_xyz
 1 'x,y,z'
 2 '-x,-y,-z'
 3 '-x,y,-1/2-z'
 4 '-1/2+x,-1/2-y,-1/2+z'
 5 '-1/2+x,-1/2+y,z'
 6 '-1/2-x,-1/2-y,-z'
 7 '-1/2-x,-1/2+y,-1/2-z'
 8 'x,-y,-1/2+z'
loop_
_atom_site_label
_atom_site_type_symbol
_atom_site_fract_x
_atom_site_fract_y
_atom_site_fract_z
H1    H     0.37300619120434 0.90125529595879 0.69079012955378 
H2    H     0.15341493656814 0.88546746442292 0.65505028379265 
H3    H     0.07789084680148 0.99471481387769 0.55096812090803 
H4    H     0.22678151576230 0.13239635024365 0.49033997085862 
H5    H     0.42645634465384 0.23453366461875 0.48459755104873 
H6    H     0.49712753995599 0.79918265937233 0.65066618516661 
H7    H     0.64359361501939 0.26740557565855 0.52908380977583 
H8    H     0.81999911804775 0.21046460155515 0.59430139814546 
H9    H     0.93664737544930 0.06389384389893 0.65993941688132 
H10   H     0.62654047585419 0.65068017467493 0.70113509725941 
H11   H     0.94985420386499 0.87430059491242 0.70228751826670 
H12   H     0.85307983115276 0.68578705510144 0.72986482678381 
C1    C     0.34544753623951 0.94731088951394 0.64405467922872 
C2    C     0.43603157868370 0.01672711268996 0.60628076240242 
C3    C     0.57205765442745 0.02056134328846 0.61948058340917 
C4    C     0.21921569341760 0.94054906721790 0.62482719352224 
C5    C     0.38705390013481 0.09065294993361 0.55354597926921 
C6    C     0.64312957943673 0.92995198891084 0.65181796162399 
C7    C     0.64217576243932 0.11655100901834 0.59416406048437 
C8    C     0.17630617776563 0.00335204815093 0.56708170446620 
C9    C     0.25890241725201 0.07926003179620 0.53325524079677 
C10   C     0.77608927523299 0.94713551140080 0.66551432043234 
C11   C     0.46574969866669 0.17896188552929 0.52421051512536 
C12   C     0.59383421700221 0.81954210192178 0.66489966855117 
C13   C     0.58587430413122 0.19577448958564 0.54772281052820 
C14   C     0.77263779637453 0.13241143295491 0.61137903790725 
C15   C     0.83674936934259 0.05173972004770 0.64730516701848 
C16   C     0.66738253172981 0.73448347767160 0.69274641779094 
C17   C     0.84893521976377 0.85841910081894 0.69384417466804 
C18   C     0.79602997500188 0.75366189573846 0.70844450969855 
