data_stdin
_audit_creation_method 'critic2'
_audit_creation_date 2023-8-11
_chemical_formula_sum 'C18 H12'
_cell_formula_units_Z 2
_cell_length_a         4.8274139524
_cell_length_b         9.9537360487
_cell_length_c        13.2746973290
_cell_angle_alpha        83.4200
_cell_angle_beta       106.7385
_cell_angle_gamma        83.3650
_cell_volume           599.366138
_space_group_crystal_system triclinic
_space_group_IT_number 2
_space_group_name_H-M_alt 'P-1'
_space_group_name_Hall '-P 1'
loop_
_symmetry_equiv_pos_site_id
_symmetry_equiv_pos_as_xyz
 1 'x,y,z'
 2 '-x,-y,-z'
loop_
_atom_site_label
_atom_site_type_symbol
_atom_site_fract_x
_atom_site_fract_y
_atom_site_fract_z
H1    H     0.32156137959567 0.58278286028831 0.93636519982584 
H2    H     0.09160951943928 0.59923955047656 0.07620340014194 
H3    H     0.72823191883513 0.80502369975300 0.06728404965834 
H4    H     0.64594410018591 0.00288037027347 0.92427552000496 
H5    H     0.76680499082673 0.11488566977442 0.77574027983135 
H6    H     0.14416315999214 0.50232944983970 0.81224180038802 
H7    H     0.03737133042550 0.11042462002497 0.64208514993225 
H8    H     0.34535168020420 0.99315932033435 0.55929750966423 
H9    H     0.62996592878462 0.78080509012202 0.53593915980162 
H10   H     0.36109273903248 0.29467875020044 0.76532931004840 
H11   H     0.75123105994868 0.53521331031167 0.56925433965363 
H12   H     0.68326100015229 0.30795367989270 0.64720529012178 
C1    C     0.15960992943451 0.67158478992258 0.92867953982246 
C2    C     0.09617348013294 0.77717908015423 0.84030465034347 
C3    C     0.21346860953931 0.76933708995039 0.75174111989326 
C4    C     0.03217787024191 0.68181439032986 0.00900851994151 
C5    C     0.92082286946674 0.90178273026941 0.84422887037342 
C6    C     0.33694409966960 0.64287255949119 0.72557788037531 
C7    C     0.20345299981674 0.89340582028559 0.68525750985261 
C8    C     0.83384907013784 0.79889283028878 0.00540355980490 
C9    C     0.78498665949249 0.90816836004897 0.92519217037545 
C10   C     0.49512132058189 0.64936404984276 0.64910334968979 
C11   C     0.89665439064246 0.02084176021955 0.76975819019609 
C12   C     0.29005295999782 0.51120156033644 0.76409888975839 
C13   C     0.04484115015460 0.01812128027741 0.69632817987314 
C14   C     0.35246515049032 0.89524099025753 0.60666232017704 
C15   C     0.50585084916732 0.77846966995812 0.59274220003814 
C16   C     0.40924147936791 0.39331758999331 0.73591718004198 
C17   C     0.62505208002302 0.52729187006772 0.62508502030172 
C18   C     0.58553214919330 0.40061025031232 0.66822087970613 
