data_stdin
_audit_creation_method 'critic2'
_audit_creation_date 2023-8-11
_chemical_formula_sum 'C18 H12'
_cell_formula_units_Z 8
_cell_length_a        14.7999725400
_cell_length_b         8.1983440103
_cell_length_c        19.9996424203
_cell_angle_alpha        89.9998
_cell_angle_beta        90.0000
_cell_angle_gamma        89.9999
_cell_volume          2426.661937
_space_group_crystal_system orthorhombic
_space_group_IT_number 60
_space_group_name_H-M_alt 'Pbcn'
_space_group_name_Hall '-P 2n 2ab'
loop_
_symmetry_equiv_pos_site_id
_symmetry_equiv_pos_as_xyz
 1 'x,y,z'
 2 '-x,-y,-z'
 3 '-1/2-x,-1/2-y,-1/2+z'
 4 '-1/2+x,-1/2+y,-1/2-z'
 5 '-1/2+x,-1/2-y,-z'
 6 '-1/2-x,-1/2+y,z'
 7 '-x,y,-1/2-z'
 8 'x,-y,-1/2+z'
loop_
_atom_site_label
_atom_site_type_symbol
_atom_site_fract_x
_atom_site_fract_y
_atom_site_fract_z
H1    H     0.30106271349852 0.40447760602634 0.52720593524104 
H2    H     0.28998267054219 0.59740117812972 0.61957437179700 
H3    H     0.35232060845132 0.52726796109102 0.73199578798297 
H4    H     0.41621217279424 0.25158514570716 0.75143903183776 
H5    H     0.44619253979032 0.97650125727408 0.71349722945276 
H6    H     0.40375615874550 0.39196337843619 0.46310479002284 
H7    H     0.43628222907039 0.76528839052581 0.62558608784782 
H8    H     0.39725393099058 0.68103497355795 0.51552693560420 
H9    H     0.34639010242546 0.74154622282853 0.39973258290059 
H10   H     0.37776707347547 0.44619608959294 0.34485770749581 
H11   H     0.31902246918296 0.93863115233291 0.31157979132421 
H12   H     0.32677115440556 0.22047242228082 0.26809256398487 
C1    C     0.33207735247318 0.37294110348435 0.57463633146992 
C2    C     0.37303773309410 0.21757308231170 0.58265112941957 
C3    C     0.38001678496860 0.09810104052824 0.52943234257957 
C4    C     0.32427267229574 0.48151223385074 0.62728280121800 
C5    C     0.39984932442113 0.17236412734664 0.64913116057760 
C6    C     0.36892231414849 0.13513794949841 0.45905020872028 
C7    C     0.39640555484384 0.93323784529308 0.54739884800069 
C8    C     0.35776529390984 0.44078215135447 0.69097371968641 
C9    C     0.39385216706243 0.28767393635431 0.70166452420051 
C10   C     0.35243426369618 0.00422682943653 0.41309690490436 
C11   C     0.42617317358001 0.00857934248906 0.66280677451673 
C12   C     0.38026313085352 0.29318951304299 0.43140683071281 
C13   C     0.42075375167437 0.89205667437173 0.61430378311620 
C14   C     0.38626433102250 0.80616450180418 0.49915793910606 
C15   C     0.35952122310984 0.83942875131837 0.43528550975383 
C16   C     0.36690254048811 0.32345248556430 0.36409393393323 
C17   C     0.33481427633958 0.03946655291009 0.34507025446632 
C18   C     0.34025520345225 0.19684561492488 0.32075654603695 
