data_stdin
_audit_creation_method 'critic2'
_audit_creation_date 2023-8-11
_chemical_formula_sum 'C18 H12'
_cell_formula_units_Z 4
_cell_length_a        20.7466741190
_cell_length_b         3.7937448700
_cell_length_c        15.5152792249
_cell_angle_alpha        90.0523
_cell_angle_beta        68.1920
_cell_angle_gamma        89.9994
_cell_volume          1133.775655
_space_group_crystal_system triclinic
_space_group_IT_number 2
_space_group_name_H-M_alt 'P-1'
_space_group_name_Hall '-P 1'
loop_
_symmetry_equiv_pos_site_id
_symmetry_equiv_pos_as_xyz
 1 'x,y,z'
 2 '-x,-y,-z'
loop_
_atom_site_label
_atom_site_type_symbol
_atom_site_fract_x
_atom_site_fract_y
_atom_site_fract_z
H1    H     0.78750060989405 0.86428493899611 0.56480168010793 
H2    H     0.21246668989004 0.36295222914584 0.93519749021673 
H3    H     0.89837006984431 0.99138701903557 0.57845031984891 
H4    H     0.10162547015115 0.49063368881139 0.92150746984244 
H5    H     0.99530460974364 0.26664586030503 0.44604599019409 
H6    H     0.00467433991756 0.76638582925065 0.05399711030459 
H7    H     0.98167321011148 0.34379368986418 0.29489869980658 
H8    H     0.01822299988800 0.84328238088067 0.20521848006633 
H9    H     0.91609937980384 0.24858177924449 0.19600680002074 
H10   H     0.08378587998779 0.74778390984548 0.30413415020884 
H11   H     0.71607561003124 0.24462764895960 0.59302976974883 
H12   H     0.28378834997863 0.74353906873912 0.90713483987517 
H13   H     0.81015564977308 0.03046952920298 0.17530365029798 
H14   H     0.18972445986772 0.52927050941243 0.32476710980950 
H15   H     0.69343422001829 0.79848760064830 0.23805972993273 
H16   H     0.30651460000166 0.29761278924114 0.26190549992658 
H17   H     0.58487756015267 0.67475661007209 0.37139864016729 
H18   H     0.41513771011547 0.17460048895161 0.12851507984498 
H19   H     0.60374591015488 0.20399274041343 0.71978202004357 
H20   H     0.39615181989887 0.70368143042369 0.78041815033826 
H21   H     0.51575791024886 0.73320545950059 0.53601334970228 
H22   H     0.48425265020178 0.23333586956600 0.96396390973213 
H23   H     0.50228277000947 0.93277721893415 0.69409022007928 
H24   H     0.49770493008642 0.43311819921926 0.80600013990457 
C1    C     0.82820363003280 0.98776289873684 0.50682198998650 
C2    C     0.17175020024777 0.48667408059571 0.99319971972715 
C3    C     0.81664339003546 0.05645053909676 0.42397214991099 
C4    C     0.18328280981272 0.55543084925004 0.07609351023064 
C5    C     0.75088324020904 0.99833786910456 0.41377346009377 
C6    C     0.24903804996222 0.49738328046612 0.08627636965628 
C7    C     0.89142229023399 0.05573883976716 0.51411866982195 
C8    C     0.10855164005022 0.55495984101162 0.98588334997272 
C9    C     0.87544433018400 0.16409014106955 0.34477345013490 
C10   C     0.12446566012358 0.66322990868950 0.15532615016367 
C11   C     0.68473469003905 0.98165708888842 0.49070515999650 
C12   C     0.31520178015811 0.48092858963445 0.00934922998404 
C13   C     0.75128661998763 0.96160333948198 0.32257891005987 
C14   C     0.24863116028237 0.46057309958314 0.17746056979697 
C15   C     0.94643023977085 0.20129297897724 0.43895330007003 
C16   C     0.05353295994495 0.70076553949619 0.06109443986477 
C17   C     0.93860397010545 0.24788067067952 0.35518085997506 
C18   C     0.06132062980712 0.74726083104859 0.14491524998350 
C19   C     0.62495635984988 0.85649951035156 0.47459281034067 
C20   C     0.37501495011993 0.35609816886740 0.02541382023285 
C21   C     0.87079176014397 0.16631359056593 0.25541926993117 
C22   C     0.12910054012409 0.66538527010135 0.24469268033433 
C23   C     0.67394834979140 0.11185759082588 0.58075348003639 
C24   C     0.32595910007603 0.61111117898559 0.91936998983694 
C25   C     0.81212818008619 0.04855050055906 0.24438128969042 
C26   C     0.18776177000513 0.54744262097588 0.25569360995915 
C27   C     0.69060612994203 0.84171776892007 0.30884732028943 
C28   C     0.30933723015452 0.34089451906920 0.19114231014675 
C29   C     0.63043367997280 0.77551019891586 0.38236000025726 
C30   C     0.36954592019390 0.27506061904909 0.11760263974613 
C31   C     0.60980871019352 0.09446779128445 0.65228298001648 
C32   C     0.39011805013864 0.59412575098145 0.84785263031941 
C33   C     0.56026163013756 0.83354704962477 0.54956246032638 
C34   C     0.43972714979793 0.33349872089387 0.95045060033387 
C35   C     0.55262127008697 0.94640503893968 0.63740629979268 
C36   C     0.44735149012363 0.44643460071494 0.86267108010582 
