data_stdin
_audit_creation_method 'critic2'
_audit_creation_date 2023-8-11
_chemical_formula_sum 'C18 H12'
_cell_formula_units_Z 4
_cell_length_a        17.2543674503
_cell_length_b         4.7488432731
_cell_length_c        14.0292316814
_cell_angle_alpha        90.0013
_cell_angle_beta        89.9995
_cell_angle_gamma        89.9994
_cell_volume          1149.531209
_space_group_crystal_system orthorhombic
_space_group_IT_number 33
_space_group_name_H-M_alt 'Pna2_1'
_space_group_name_Hall 'P 2c -2n'
loop_
_symmetry_equiv_pos_site_id
_symmetry_equiv_pos_as_xyz
 1 'x,y,z'
 2 '-x,-y,-1/2+z'
 3 '-1/2-x,-1/2+y,-1/2+z'
 4 '-1/2+x,-1/2-y,z'
loop_
_atom_site_label
_atom_site_type_symbol
_atom_site_fract_x
_atom_site_fract_y
_atom_site_fract_z
H1    H     0.98783632997835 0.60974471968807 0.99356438027906 
H2    H     0.88151906996314 0.95029807928457 0.99314521988624 
H3    H     0.84677033003908 0.21235418067134 0.14090506987437 
H4    H     0.91724092998853 0.10543415039269 0.29160828028882 
H5    H     0.00992022983833 0.83782390016008 0.38046411996173 
H6    H     0.08982467019423 0.70172262964525 0.95887956967409 
H7    H     0.10908132001427 0.46079254948017 0.38746550968350 
H8    H     0.18655220007337 0.11074252057523 0.31430750024296 
H9    H     0.24473327024241 0.88952575099814 0.17097182965625 
H10   H     0.15951573994890 0.51177658897740 0.82239249001184 
H11   H     0.26896724979551 0.89753087066085 0.00295897999593 
H12   H     0.24818022979820 0.10096407099864 0.84102349030943 
C1    C     0.97632628987580 0.72881818938495 0.05791040030278 
C2    C     0.02160905014588 0.67824542976943 0.14060473980286 
C3    C     0.08810786028471 0.49083851983059 0.14367982987431 
C4    C     0.91486047978339 0.91628092895906 0.05814590003048 
C5    C     0.99583765002329 0.80982221029241 0.22701868973441 
C6    C     0.13047181002353 0.39155031990006 0.06074450008741 
C7    C     0.11440523976417 0.40093500038854 0.23468859995162 
C8    C     0.89442988010683 0.06246780967416 0.14171550987788 
C9    C     0.93391439986023 0.00488456929778 0.22496545989808 
C10   C     0.18671939977982 0.17088872953604 0.07202934984631 
C11   C     0.03025947998967 0.73490836914081 0.31571927019736 
C12   C     0.12460406023106 0.51408052964571 0.96880654005830 
C13   C     0.08494869028918 0.52767889898876 0.31939370019390 
C14   C     0.17105649972310 0.18343736940656 0.24318542965432 
C15   C     0.20363425994835 0.06293766099738 0.16453283968817 
C16   C     0.16591839011793 0.41169120899299 0.89174337002668 
C17   C     0.22793547983349 0.06893564934007 0.99194889989075 
C18   C     0.21693804005265 0.18319017952236 0.90241305034496 
