data_stdin
_audit_creation_method 'critic2'
_audit_creation_date 2023-8-11
_chemical_formula_sum 'C18 H12'
_cell_formula_units_Z 8
_cell_length_a        32.5061396026
_cell_length_b         5.8137500602
_cell_length_c        13.6101585246
_cell_angle_alpha        89.9986
_cell_angle_beta        67.2871
_cell_angle_gamma        89.9999
_cell_volume          2372.620171
_space_group_crystal_system monoclinic
_space_group_IT_number 15
_space_group_name_H-M_alt 'C2/c'
_space_group_name_Hall '-C 2yc'
loop_
_symmetry_equiv_pos_site_id
_symmetry_equiv_pos_as_xyz
 1 'x,y,z'
 2 '-1/2-x,-1/2-y,-z'
 3 '-1/2-x,-1/2+y,-1/2-z'
 4 'x,-y,-1/2+z'
 5 '-1/2+x,-1/2+y,z'
 6 '-x,-y,-z'
 7 '-x,y,-1/2-z'
 8 '-1/2+x,-1/2-y,-1/2+z'
loop_
_atom_site_label
_atom_site_type_symbol
_atom_site_fract_x
_atom_site_fract_y
_atom_site_fract_z
H1    H     0.06290871548743 0.47037481931751 0.94097224479369 
H2    H     0.99434348963326 0.38033714331067 0.91645917590580 
H3    H     0.98320800239454 0.99474521374484 0.85029940182330 
H4    H     0.04661499708721 0.71589947418631 0.79120781913582 
H5    H     0.12258716491377 0.61668088136905 0.76077822408414 
H6    H     0.06898463377501 0.42367082367709 0.07440719976049 
H7    H     0.19465673814937 0.71563873956875 0.77132064137595 
H8    H     0.24137760889188 0.96918400663513 0.81731016226038 
H9    H     0.25291741250335 0.31735745950229 0.90979702812861 
H10   H     0.08135475279717 0.74849905110231 0.17394884950927 
H11   H     0.22267301339973 0.63181835858571 0.03101056931573 
H12   H     0.15849654830932 0.86681432078174 0.14874529575732 
C1    C     0.05862418802512 0.29855515892891 0.91551305792898 
C2    C     0.09340130510153 0.13508743326324 0.89418207838836 
C3    C     0.13371968011306 0.17524113287655 0.91354311000719 
C4    C     0.02011992670059 0.24954736201630 0.89911132587980 
C5    C     0.08920281612831 0.92645871696704 0.84229640318226 
C6    C     0.13889622598355 0.35512040933396 0.98186159879295 
C7    C     0.17080601585969 0.02923953409197 0.86105294528212 
C8    C     0.01426531038089 0.03416544586391 0.85935864608368 
C9    C     0.04904889073206 0.87852756928405 0.82842264324816 
C10   C     0.18275899243676 0.40924576061073 0.97677242035334 
C11   C     0.12613424891371 0.77322965728700 0.80061330557427 
C12   C     0.10293919192372 0.47751404433719 0.05824592013299 
C13   C     0.16592469865034 0.82815802167310 0.80645428876049 
C14   C     0.21361623618886 0.08234605753776 0.86144100677166 
C15   C     0.21986028021256 0.27204006540253 0.91322153148006 
C16   C     0.10981261845956 0.65839140212646 0.11626708948993 
C17   C     0.18890720228490 0.59443167604822 0.03727830242955 
C18   C     0.15332324053309 0.72258482456495 0.10382283247457 
