data_stdin
_audit_creation_method 'critic2'
_audit_creation_date 2023-8-11
_chemical_formula_sum 'C18 H12'
_cell_formula_units_Z 8
_cell_length_a        29.0606633328
_cell_length_b        14.6843147085
_cell_length_c         5.7009839343
_cell_angle_alpha        90.0472
_cell_angle_beta        90.0043
_cell_angle_gamma        89.9976
_cell_volume          2432.813826
_space_group_crystal_system monoclinic
_space_group_IT_number 7
_space_group_name_H-M_alt 'Pc'
_space_group_name_Hall 'P -2yc'
loop_
_symmetry_equiv_pos_site_id
_symmetry_equiv_pos_as_xyz
 1 'x,y,z'
 2 '-1/2-x,y,-1/2+z'
 3 'x,-1/2+y,-1/2+z'
 4 '-1/2-x,-1/2+y,z'
loop_
_atom_site_label
_atom_site_type_symbol
_atom_site_fract_x
_atom_site_fract_y
_atom_site_fract_z
H1    H     0.65145686719615 0.59863961133788 0.10927174576797 
H2    H     0.34861394049381 0.40124382066000 0.10868666220106 
H3    H     0.69806601221403 0.52661306911471 0.41373936679612 
H4    H     0.30201681405799 0.47366299363518 0.41284837867532 
H5    H     0.72795044914598 0.61808525919767 0.75187016815592 
H6    H     0.27209136237019 0.38259200905958 0.75121940647825 
H7    H     0.71521922663243 0.78438610265546 0.75912811987217 
H8    H     0.28480067370667 0.21628476774774 0.75906315794849 
H9    H     0.68598355098387 0.92200544215848 0.58000516760363 
H10   H     0.31405817970209 0.07843741827655 0.58048017252140 
H11   H     0.58535126794067 0.60039003701241 0.13031468803741 
H12   H     0.41473083285846 0.39949779445640 0.13032563995682 
H13   H     0.64235116683645 0.99906736178438 0.26196268479790 
H14   H     0.35770565225006 0.00101505558240 0.26282858893262 
H15   H     0.59680891092760 0.99557980232397 0.92064103596157 
H16   H     0.40331831050283 0.00413808789296 0.92168399458783 
H17   H     0.55559827243949 0.91153004764704 0.60387091989091 
H18   H     0.44455394509609 0.08784603657541 0.60474879263555 
H19   H     0.53828082456009 0.52285832517007 0.83708891308745 
H20   H     0.46169012461251 0.47684615159261 0.83673497528247 
H21   H     0.52590201390448 0.77154067490696 0.44543547971934 
H22   H     0.47414713911728 0.22783094436727 0.44553586840255 
H23   H     0.50968255106418 0.60656227375059 0.48364532168196 
H24   H     0.49021645173781 0.39301598715282 0.48331881428635 
C1    C     0.66246675220166 0.63912741146004 0.25821178321229 
C2    C     0.33759379269847 0.36094481604725 0.25776124609351 
C3    C     0.65046206577064 0.73270487678314 0.26935130434297 
C4    C     0.34959559727900 0.26738168735897 0.26929024858423 
C5    C     0.61959018757355 0.77709602134708 0.10544690602799 
C6    C     0.38048526643186 0.22280119723575 0.10566667452089 
C7    C     0.68971771975620 0.59876094400404 0.42770917010459 
C8    C     0.31034293557355 0.40152313955845 0.42707500030457 
C9    C     0.67278056909439 0.78612763094398 0.44728651055621 
C10   C     0.32726488393561 0.21416801542168 0.44735233339435 
C11   C     0.58865869948645 0.72960207187205 0.94718462720789 
C12   C     0.41142350017492 0.27013830143047 0.94736158039853 
C13   C     0.61962272406003 0.87384589489521 0.09899140591341 
C14   C     0.38046060256015 0.12605206931728 0.09951736153413 
C15   C     0.70722331524350 0.65011148813127 0.61633120402872 
C16   C     0.29282044894771 0.35039613398848 0.61582503604127 
C17   C     0.69983864198272 0.74293916678437 0.62113035880909 
C18   C     0.30019197230822 0.25757184851214 0.62096834470613 
C19   C     0.56766408746147 0.77902450651710 0.75827526132505 
C20   C     0.43242785443474 0.22054805883005 0.75855660988592 
C21   C     0.66867298707863 0.88278562477362 0.44375031881707 
C22   C     0.33137721144393 0.11750935489075 0.44415240180655 
C23   C     0.57522882945715 0.63730613819807 0.97403792859202 
C24   C     0.42483319725078 0.36245912985645 0.97405331982204 
C25   C     0.64439155380945 0.92510363879208 0.27038760324418 
C26   C     0.35567583944995 0.07499052385291 0.27098427246989 
C27   C     0.59524593378276 0.92148742799782 0.91964348366119 
C28   C     0.40487102872609 0.07823122941174 0.92037953489429 
C29   C     0.57219034951059 0.87555280912171 0.74782693171813 
C30   C     0.42793049698591 0.12398865761415 0.74848342626472 
C31   C     0.54755174755148 0.59397335165766 0.81088758231614 
C32   C     0.45245511690438 0.40568756566801 0.81068498584426 
C33   C     0.54036641437328 0.73279576890085 0.59057232652533 
C34   C     0.45967329578659 0.26666367191632 0.59065108753689 
C35   C     0.53114099340330 0.64094369591496 0.61267615755679 
C36   C     0.46884103402789 0.35857638604616 0.61245430966837 
