data_stdin
_audit_creation_method 'critic2'
_audit_creation_date 2023-8-11
_chemical_formula_sum 'C18 H12'
_cell_formula_units_Z 1
_cell_length_a         4.7887656233
_cell_length_b         9.7406261345
_cell_length_c         8.2225832702
_cell_angle_alpha       108.2416
_cell_angle_beta        63.0087
_cell_angle_gamma        78.7247
_cell_volume           297.649929
_space_group_crystal_system triclinic
_space_group_IT_number 1
_space_group_name_H-M_alt 'P1'
_space_group_name_Hall 'P 1'
loop_
_symmetry_equiv_pos_site_id
_symmetry_equiv_pos_as_xyz
 1 'x,y,z'
loop_
_atom_site_label
_atom_site_type_symbol
_atom_site_fract_x
_atom_site_fract_y
_atom_site_fract_z
H1    H     0.96677151909659 0.94403913024348 0.92167860066396 
H2    H     0.83751980018091 0.74616382958799 0.73474885007035 
H3    H     0.49128861021115 0.61402798042438 0.90668174000398 
H4    H     0.32959702103809 0.66828642987374 0.26151331980474 
H5    H     0.35057825065503 0.79065013923288 0.55468698926488 
H6    H     0.69225956020816 0.15956974951101 0.06033977955755 
H7    H     0.50555709015992 0.97987391999417 0.74479891994256 
H8    H     0.73353875087325 0.17159024017878 0.77749996005956 
H9    H     0.96843901979662 0.35340771052576 0.66139236001111 
H10   H     0.85516839901130 0.36319763023857 0.98041487064813 
H11   H     0.06873046017545 0.48257580950055 0.44869003947121 
H12   H     0.05266269930288 0.52555473972868 0.16851941000646 
C1    C     0.80848099080753 0.89233348028422 0.00288999977689 
C2    C     0.68923885851106 0.93826011004742 0.21224820066820 
C3    C     0.73302116090057 0.06429039993705 0.33698623971267 
C4    C     0.74211300087028 0.77729027944002 0.89504205924756 
C5    C     0.53274541073895 0.84593687026293 0.29895051956643 
C6    C     0.81924267952801 0.18692966978232 0.28704187044589 
C7    C     0.68140344007510 0.06998028965371 0.52378270959405 
C8    C     0.55428435054910 0.69988182020036 0.98983175977795 
C9    C     0.45999297965486 0.73181503031341 0.18740098991731 
C10   C     0.90711052881933 0.29002371007789 0.40587292066880 
C11   C     0.46160034917229 0.86499332955115 0.49453865005565 
C12   C     0.79663998002663 0.22118516043868 0.13689000990071 
C13   C     0.54676478056773 0.96890755995749 0.59884297998620 
C14   C     0.76520488062707 0.17610030936729 0.63988123934440 
C15   C     0.88974156102459 0.27744856991979 0.57794404972130 
C16   C     0.88063269991062 0.33949339943872 0.09490758963282 
C17   C     0.99551645919051 0.40916382995838 0.35839334038166 
C18   C     0.98799722939523 0.43281648028227 0.20317190033258 
