data_stdin
_audit_creation_method 'critic2'
_audit_creation_date 2023-8-11
_chemical_formula_sum 'C18 H12'
_cell_formula_units_Z 4
_cell_length_a         7.7806667743
_cell_length_b        14.7481043902
_cell_length_c        10.8361605764
_cell_angle_alpha        89.9997
_cell_angle_beta        71.4491
_cell_angle_gamma        89.9981
_cell_volume          1178.842382
_space_group_crystal_system monoclinic
_space_group_IT_number 14
_space_group_name_H-M_alt 'P2_1/c'
_space_group_name_Hall '-P 2ybc'
loop_
_symmetry_equiv_pos_site_id
_symmetry_equiv_pos_as_xyz
 1 'x,y,z'
 2 '-x,-y,-z'
 3 '-x,-1/2+y,-1/2-z'
 4 'x,-1/2-y,-1/2+z'
loop_
_atom_site_label
_atom_site_type_symbol
_atom_site_fract_x
_atom_site_fract_y
_atom_site_fract_z
H1    H     0.72409101982444 0.08865455018317 0.12365064970945 
H2    H     0.65349824996531 0.93620900997870 0.20881770028317 
H3    H     0.88825277975310 0.84088795004240 0.26021517963479 
H4    H     0.19983982038396 0.90137646008273 0.21270134972364 
H5    H     0.42382813960095 0.01742817028913 0.12406587004478 
H6    H     0.68694796033777 0.19695536973128 0.22981911993125 
H7    H     0.51063543009510 0.16385072022669 0.00784704990109 
H8    H     0.43498405946559 0.29913552015389 0.91608419012098 
H9    H     0.20983920082606 0.40385161006926 0.87451725952858 
H10   H     0.47018248040444 0.30951182026893 0.20697764999831 
H11   H     0.89812419963605 0.45287260021768 0.92186265040998 
H12   H     0.57106495974669 0.43744819004843 0.04762754044136 
C1    C     0.82654477972449 0.05130676968334 0.15082570959455 
C2    C     0.99993806032638 0.09042691990903 0.12980093990585 
C3    C     0.04786642980641 0.18144468001295 0.08035203960717 
C4    C     0.78717227979182 0.96394715987790 0.19735924045339 
C5    C     0.13772614067650 0.03238876025648 0.14827097976321 
C6    C     0.91739461996326 0.25088402989519 0.07712925968086 
C7    C     0.23480444918389 0.20341443011476 0.02812736044762 
C8    C     0.91983201974639 0.90978015004777 0.22408619023768 
C9    C     0.09322854056806 0.94364702967869 0.19797280977016 
C10   C     0.97740000021167 0.32931054990032 0.99645951047352 
C11   C     0.32139910005837 0.06242876004733 0.10878663042722 
C12   C     0.73285402978457 0.24911362033682 0.15600678970438 
C13   C     0.36903603063197 0.14315736007760 0.04537394980587 
C14   C     0.29028621967695 0.28520643995298 0.95582688985396 
C15   C     0.16655141056591 0.34365939968861 0.93443971960060 
C16   C     0.61092839994369 0.31457611982834 0.14539389018987 
C17   C     0.84974985009994 0.39479234009353 0.98558187018884 
C18   C     0.66823123930538 0.38676316983447 0.05662882044190 
