data_stdin
_audit_creation_method 'critic2'
_audit_creation_date 2023-8-11
_chemical_formula_sum 'C18 H12'
_cell_formula_units_Z 4
_cell_length_a        24.8310869065
_cell_length_b         4.7016006141
_cell_length_c        10.0822753546
_cell_angle_alpha        89.9987
_cell_angle_beta        90.0006
_cell_angle_gamma        90.0077
_cell_volume          1177.063830
_space_group_crystal_system orthorhombic
_space_group_IT_number 29
_space_group_name_H-M_alt 'Pca2_1'
_space_group_name_Hall 'P 2c -2ac'
loop_
_symmetry_equiv_pos_site_id
_symmetry_equiv_pos_as_xyz
 1 'x,y,z'
 2 '-x,-y,-1/2+z'
 3 '-1/2-x,y,-1/2+z'
 4 '-1/2+x,-y,z'
loop_
_atom_site_label
_atom_site_type_symbol
_atom_site_fract_x
_atom_site_fract_y
_atom_site_fract_z
H1    H     0.72064476006576 0.80080669098989 0.04093392039144 
H2    H     0.77892432008410 0.15328166988914 0.93809474957301 
H3    H     0.75402633988442 0.38303940076541 0.72471673042256 
H4    H     0.67036088013686 0.22600580971117 0.60902889031034 
H5    H     0.59453418980590 0.91354186105425 0.58918545972232 
H6    H     0.66974345988210 0.89188321097447 0.16924403958013 
H7    H     0.53726266998344 0.52913218914836 0.68028544990547 
H8    H     0.51226239013662 0.21675205079651 0.84975948999850 
H9    H     0.51796653001457 0.04101147039774 0.08172634964805 
H10   H     0.66388516007454 0.75732177101715 0.40030911048365 
H11   H     0.54750606981967 0.11251483009571 0.30465688994531 
H12   H     0.60217450985603 0.36802069081297 0.47341436974337 
C1    C     0.70712024989966 0.90253388950626 0.95034032967215 
C2    C     0.65704546011443 0.82444524028237 0.89288832989774 
C3    C     0.61797656009762 0.63508833085271 0.95407554973313 
C4    C     0.74102497002276 0.09795112939382 0.89058705010073 
C5    C     0.64630364003293 0.93417994053625 0.76260584006110 
C6    C     0.61629920982201 0.56224574092631 0.09429468017673 
C7    C     0.57696408981725 0.52054154981859 0.87144077038287 
C8    C     0.72750132989403 0.22473889895256 0.76876161968310 
C9    C     0.68113996996133 0.13811862938238 0.70530969020282 
C10   C     0.57949548998322 0.34588368915333 0.13855985958166 
C11   C     0.60161138985135 0.83015604097315 0.68855737004735 
C12   C     0.64548954000615 0.70820216913456 0.19450642954487 
C13   C     0.56988034997846 0.61950653049525 0.73898378021698 
C14   C     0.54136655018636 0.30555731015364 0.91905370970978 
C15   C     0.54405127991504 0.21150329064812 0.04665533953064 
C16   C     0.64106686009825 0.63672172898012 0.32727936012092 
C17   C     0.57590689005789 0.27680465961850 0.27478251022779 
C18   C     0.60633994004165 0.41785923073853 0.36847396951906 
