data_stdin
_audit_creation_method 'critic2'
_audit_creation_date 2023-8-11
_chemical_formula_sum 'C18 H12'
_cell_formula_units_Z 4
_cell_length_a        10.5172749372
_cell_length_b         7.3913109100
_cell_length_c        16.2417135830
_cell_angle_alpha        90.0000
_cell_angle_beta        69.8426
_cell_angle_gamma        90.0000
_cell_volume          1185.239708
_space_group_crystal_system monoclinic
_space_group_IT_number 14
_space_group_name_H-M_alt 'P2_1/c'
_space_group_name_Hall '-P 2ybc'
loop_
_symmetry_equiv_pos_site_id
_symmetry_equiv_pos_as_xyz
 1 'x,y,z'
 2 '-x,-y,-z'
 3 '-x,-1/2+y,-1/2-z'
 4 'x,-1/2-y,-1/2+z'
loop_
_atom_site_label
_atom_site_type_symbol
_atom_site_fract_x
_atom_site_fract_y
_atom_site_fract_z
H1    H     0.99227078011022 0.77800725999498 0.24441630023252 
H2    H     0.77196473004170 0.86539744984884 0.23614542024004 
H3    H     0.57965128953779 0.94166831991328 0.37135575017498 
H4    H     0.60889730987270 0.91540804059795 0.51670552014189 
H5    H     0.74571164979763 0.84263913066770 0.60542061992402 
H6    H     0.12896718051461 0.95841423952826 0.23294503976469 
H7    H     0.95998114050256 0.72570450954355 0.61633810984913 
H8    H     0.18913296002491 0.64099927959255 0.55336379014925 
H9    H     0.40301674993635 0.61896062009267 0.42642966976860 
H10   H     0.34659581000277 0.96925090941960 0.11511504970732 
H11   H     0.52983947957314 0.67392033006899 0.27330400025919 
H12   H     0.54906191025873 0.81557403956049 0.13090639021347 
C1    C     0.91164776020717 0.81861848032899 0.30391298001432 
C2    C     0.93555359028956 0.81545542942910 0.38475800997903 
C3    C     0.06654352962194 0.77902184008400 0.39254144993609 
C4    C     0.78648574005377 0.86331718065568 0.29933650989843 
C5    C     0.82029410979318 0.84293061969219 0.46294686004990 
C6    C     0.19512400026364 0.79242115033723 0.32096076029111 
C7    C     0.06960138984232 0.73444139968482 0.47688044011306 
C8    C     0.67696448001055 0.90415032970185 0.37599317029596 
C9    C     0.69375852957731 0.89070298036438 0.45638860032095 
C10   C     0.31560273985463 0.72561934955771 0.33333483969127 
C11   C     0.83279171038005 0.81602792977865 0.54666396982889 
C12   C     0.21284465053431 0.88430296046315 0.24100541967583 
C13   C     0.95140810002762 0.75461678035658 0.55278168995467 
C14   C     0.19210740047919 0.67618112062218 0.48764978987518 
C15   C     0.30998480011757 0.66503836060417 0.41788853992646 
C16   C     0.33726316002153 0.89291287051146 0.17430279002392 
C17   C     0.44097025041066 0.73079165995844 0.26300369998055 
C18   C     0.45169072013530 0.80974192942384 0.18389257979477 
