data_stdin
_audit_creation_method 'critic2'
_audit_creation_date 2023-8-11
_chemical_formula_sum 'C18 H12'
_cell_formula_units_Z 2
_cell_length_a         9.8924092331
_cell_length_b         8.9231129349
_cell_length_c         7.6454584197
_cell_angle_alpha        71.9965
_cell_angle_beta        72.8930
_cell_angle_gamma        99.3235
_cell_volume           589.206366
_space_group_crystal_system triclinic
_space_group_IT_number 2
_space_group_name_H-M_alt 'P-1'
_space_group_name_Hall '-P 1'
loop_
_symmetry_equiv_pos_site_id
_symmetry_equiv_pos_as_xyz
 1 'x,y,z'
 2 '-x,-y,-z'
loop_
_atom_site_label
_atom_site_type_symbol
_atom_site_fract_x
_atom_site_fract_y
_atom_site_fract_z
H1    H     0.01214332065725 0.66896883069545 0.18562833958979 
H2    H     0.18995705007498 0.52044980924746 0.09452221054705 
H3    H     0.13107145968595 0.21830055009678 0.27186200997814 
H4    H     0.88930141032607 0.06852943037393 0.54555524027399 
H5    H     0.65677283991836 0.06771753049155 0.76879492018111 
H6    H     0.86442573946455 0.71749314957215 0.06858636062071 
H7    H     0.49233839992094 0.22194021032382 0.89799835952415 
H8    H     0.43896640028656 0.47519634007969 0.89030139963219 
H9    H     0.49069173020314 0.77690270968573 0.72919764014149 
H10   H     0.87996017027844 0.00346358019369 0.89290374946462 
H11   H     0.61727120987087 0.02872565988216 0.43600319022273 
H12   H     0.76393462961074 0.16600615014837 0.07728304973490 
C1    C     0.98012351020200 0.53654056961447 0.25844680997279 
C2    C     0.83937832945312 0.45519520996523 0.41008658067992 
C3    C     0.73209691045779 0.53937132995110 0.47220178001082 
C4    C     0.08199785983799 0.45291577946502 0.20899378016655 
C5    C     0.81002770971451 0.28300529964661 0.51894364046505 
C6    C     0.73879597006115 0.70610383958229 0.35977626070251 
C7    C     0.61539252958780 0.45575260014406 0.65835862044714 
C8    C     0.04915474030121 0.28256545050328 0.30993073931190 
C9    C     0.91527764989316 0.19977088016725 0.46275245049532 
C10   C     0.65739076000578 0.79410209968744 0.45903608054714 
C11   C     0.67935726977500 0.19926935058839 0.69053446963514 
C12   C     0.81409689015887 0.78543390985816 0.15251961993027 
C13   C     0.58864737969522 0.28420104001242 0.76183360988485 
C14   C     0.52645408981463 0.54346135027842 0.74632040978609 
C15   C     0.55374565963572 0.70920265988411 0.65660656959209 
C16   C     0.82074421007173 0.94649849064804 0.05214993945011 
C17   C     0.67294902005035 0.96127956037684 0.35525189039554 
C18   C     0.75438375968939 0.03769790985277 0.15524581024227 
