data_stdin
_audit_creation_method 'critic2'
_audit_creation_date 2023-8-11
_chemical_formula_sum 'C18 H12'
_cell_formula_units_Z 8
_cell_length_a        12.9455692571
_cell_length_b         9.7325378515
_cell_length_c        19.5597217759
_cell_angle_alpha        89.9989
_cell_angle_beta       106.4372
_cell_angle_gamma        89.9999
_cell_volume          2363.674468
_space_group_crystal_system monoclinic
_space_group_IT_number 15
_space_group_name_H-M_alt 'C2/c'
_space_group_name_Hall '-C 2yc'
loop_
_symmetry_equiv_pos_site_id
_symmetry_equiv_pos_as_xyz
 1 'x,y,z'
 2 '-1/2-x,-1/2-y,-z'
 3 '-1/2-x,-1/2+y,-1/2-z'
 4 'x,-y,-1/2+z'
 5 '-1/2+x,-1/2+y,z'
 6 '-x,-y,-z'
 7 '-x,y,-1/2-z'
 8 '-1/2+x,-1/2-y,-1/2+z'
loop_
_atom_site_label
_atom_site_type_symbol
_atom_site_fract_x
_atom_site_fract_y
_atom_site_fract_z
H1    H     0.12547165975856 0.30308224992511 0.23531427015968 
H2    H     0.03666387008170 0.14602391992430 0.13878851974267 
H3    H     0.05476287011963 0.89192223009609 0.15636893989278 
H4    H     0.17492754020760 0.80000044012694 0.26932775982983 
H5    H     0.30864095001265 0.83686548030474 0.38310613011409 
H6    H     0.04853839979928 0.35573594977677 0.30707774025291 
H7    H     0.41536528965099 0.99571066028663 0.47544224005173 
H8    H     0.45910262981204 0.22156450973729 0.52281313007242 
H9    H     0.41865019993803 0.47095897040705 0.52383181981003 
H10   H     0.99535843021483 0.59269994975718 0.32150367021297 
H11   H     0.29841615002410 0.66152046994688 0.47943877990824 
H12   H     0.12360729985191 0.75253519957934 0.40381682017353 
C1    C     0.13184575990302 0.19309625020442 0.24482909010437 
C2    C     0.19413504965193 0.14404018953872 0.31212941009085 
C3    C     0.24323009996036 0.23244128023500 0.37217253017735 
C4    C     0.08353885016018 0.10442434985616 0.18983162977188 
C5    C     0.21478613023361 0.99912598960734 0.31836150993361 
C6    C     0.20840853964819 0.37149983988783 0.38014388985796 
C7    C     0.32948924993696 0.17831843987596 0.42761474013838 
C8    C     0.09452161035648 0.96138336952173 0.19939873014050 
C9    C     0.16074825019316 0.91010490002702 0.26240399010875 
C10   C     0.27552870001023 0.45863314997992 0.43360868009785 
C11   C     0.29377348037296 0.94711602033452 0.37933920026501 
C12   C     0.10619039995857 0.42398135013513 0.34192027006779 
C13   C     0.35252085963576 0.03473697993641 0.43010894988523 
C14   C     0.39229167011339 0.26663028042911 0.48192961999901 
C15   C     0.36939570026569 0.40352905037987 0.48297044004210 
C16   C     0.07551861983624 0.55745457979505 0.35078173991075 
C17   C     0.24440265001287 0.59637612018964 0.43971415973646 
C18   C     0.14676597992375 0.64637154987693 0.39844374013249 
