data_stdin
_audit_creation_method 'critic2'
_audit_creation_date 2023-8-11
_chemical_formula_sum 'C18 H12'
_cell_formula_units_Z 2
_cell_length_a         8.0873303364
_cell_length_b        10.8367497411
_cell_length_c         7.4304400753
_cell_angle_alpha        85.5427
_cell_angle_beta       108.1076
_cell_angle_gamma       101.3351
_cell_volume           606.785494
_space_group_crystal_system triclinic
_space_group_IT_number 2
_space_group_name_H-M_alt 'P-1'
_space_group_name_Hall '-P 1'
loop_
_symmetry_equiv_pos_site_id
_symmetry_equiv_pos_as_xyz
 1 'x,y,z'
 2 '-x,-y,-z'
loop_
_atom_site_label
_atom_site_type_symbol
_atom_site_fract_x
_atom_site_fract_y
_atom_site_fract_z
H1    H     0.94999543000682 0.60869907015909 0.60743335007448 
H2    H     0.18214321019924 0.78232863985575 0.57637802041083 
H3    H     0.19690124977431 0.99692519978037 0.68913492029115 
H4    H     0.96430825920346 0.03389851975435 0.82085189949739 
H5    H     0.69485972001480 0.96020011978731 0.90600782026006 
H6    H     0.96796742991819 0.49042303033339 0.82813926063972 
H7    H     0.43168617069715 0.79431589041910 0.89001226037483 
H8    H     0.26777749995240 0.58847743990381 0.80907442978084 
H9    H     0.24628167989510 0.36814508020974 0.71918853045668 
H10   H     0.95245431048106 0.26599923013766 0.79406615959590 
H11   H     0.38602203969224 0.20307481975033 0.66666461033719 
H12   H     0.65866216996935 0.12085407025076 0.69213444047360 
C1    C     0.95664320004261 0.69932492979130 0.66466299067369 
C2    C     0.82667248016475 0.71500062009278 0.74834909017903 
C3    C     0.68541062020914 0.61463705017389 0.76822133948082 
C4    C     0.08679813950579 0.79838313977276 0.64392868939076 
C5    C     0.82846647060063 0.84059096018875 0.79900628987121 
C6    C     0.68429816975867 0.48181548975050 0.75391762022277 
C7    C     0.53655115040786 0.64870651962321 0.80081254004219 
C8    C     0.09425094991967 0.91933552970406 0.70594031995059 
C9    C     0.96514356041650 0.93976643032705 0.77974047008521 
C10   C     0.52041506941411 0.39477325954251 0.72499112972620 
C11   C     0.68766403067713 0.86577875005378 0.85979111015799 
C12   C     0.83893576000692 0.43004712028610 0.78251516042000 
C13   C     0.54343974061539 0.77415888979238 0.85254352023129 
C14   C     0.37909415959997 0.55790995032414 0.78419832936123 
C15   C     0.36797818975918 0.43674665975376 0.73704557998333 
C16   C     0.83043341948800 0.30258347011824 0.76529709942678 
C17   C     0.51396166018547 0.26594950986460 0.69747616067018 
C18   C     0.66576225982876 0.22019611973909 0.71385303004219 
