data_stdin
_audit_creation_method 'critic2'
_audit_creation_date 2023-8-11
_chemical_formula_sum 'C18 H12'
_cell_formula_units_Z 16
_cell_length_a        30.7234723301
_cell_length_b        39.4403184369
_cell_length_c         3.8119283336
_cell_angle_alpha        89.9171
_cell_angle_beta        89.9366
_cell_angle_gamma        89.9924
_cell_volume          4619.071796
_space_group_crystal_system triclinic
_space_group_IT_number 1
_space_group_name_H-M_alt 'P1'
_space_group_name_Hall 'P 1'
loop_
_symmetry_equiv_pos_site_id
_symmetry_equiv_pos_as_xyz
 1 'x,y,z'
 2 'x,-1/2+y,-1/2+z'
 3 '-1/2+x,y,-1/2+z'
 4 '-1/2+x,-1/2+y,z'
loop_
_atom_site_label
_atom_site_type_symbol
_atom_site_fract_x
_atom_site_fract_y
_atom_site_fract_z
H1    H     0.36143541891528 0.39583596087995 0.48581246959056 
H2    H     0.63855890656987 0.60420996531589 0.48627044840387 
H3    H     0.88859903312160 0.64584951674290 0.73625253170218 
H4    H     0.61146658771334 0.85419540419416 0.73658467582694 
H5    H     0.39541957339718 0.45006965367825 0.62039719928927 
H6    H     0.60456122823786 0.54994321830336 0.62147743679594 
H7    H     0.85461699575100 0.70009101401861 0.87137095105736 
H8    H     0.64543159462650 0.79992712646480 0.87189619944207 
H9    H     0.35059066906816 0.49839949435201 0.84945493644869 
H10   H     0.64936278208798 0.50155793627666 0.85025803186585 
H11   H     0.89942008777063 0.74838785556094 0.10044689776549 
H12   H     0.60055882809896 0.75153940765414 0.10034235463820 
H13   H     0.27041602539173 0.49213318606408 0.88466388689160 
H14   H     0.72953371626968 0.50781924243538 0.88462960678471 
H15   H     0.97958929311876 0.74207770635242 0.13519211881131 
H16   H     0.52037350457171 0.75780835960580 0.13441860868232 
H17   H     0.20462451228619 0.45981583133928 0.77494404765040 
H18   H     0.79533478332274 0.54015676513133 0.77404067428573 
H19   H     0.04537984562992 0.70974258796001 0.02482813466859 
H20   H     0.45460771410357 0.79015498560665 0.02377582573145 
H21   H     0.35343277626888 0.36100396777109 0.86155956676600 
H22   H     0.64655219479089 0.63898910845703 0.86157793965265 
H23   H     0.89652571228732 0.61096945855509 0.11162036534532 
H24   H     0.60336229473397 0.88895214391258 0.11180080807294 
H25   H     0.16921746402889 0.40820134798597 0.54031502950467 
H26   H     0.83077456193590 0.59181795592763 0.53858183259902 
H27   H     0.08081531300514 0.65812681549990 0.78968917350749 
H28   H     0.41923211932244 0.84182824535275 0.78843174306780 
H29   H     0.17320857991230 0.35166132256575 0.30383379103235 
H30   H     0.82681280850931 0.64838794179163 0.30128468864184 
H31   H     0.07685029170317 0.60160833838777 0.55276071484875 
H32   H     0.42325797285087 0.89840854317105 0.55144209030905 
H33   H     0.21365996879968 0.29826553818911 0.20582035279994 
H34   H     0.78635874642908 0.70179123640397 0.20254520864325 
H35   H     0.03638665468661 0.54824998591852 0.45409779349440 
H36   H     0.46371797475011 0.95182277382512 0.45341680237957 
H37   H     0.38812099325039 0.30542872202062 0.85174093806493 
H38   H     0.61190018272314 0.69458123214431 0.85167715353491 
H39   H     0.86181851429471 0.55540993750093 0.10126680587965 
H40   H     0.63801099970021 0.94453949727306 0.10235431289521 
H41   H     0.27803258336348 0.26398606823606 0.30618872772035 
H42   H     0.72198492993789 0.73605332192176 0.30297780115046 
H43   H     0.97196398694288 0.51399965103154 0.55398752838957 
H44   H     0.52804582855409 0.98608352535120 0.55457586720356 
H45   H     0.35157438215528 0.25627634177934 0.56003029557187 
H46   H     0.64846628005626 0.74376218984435 0.55854024481129 
H47   H     0.89838540597906 0.50628506144437 0.80843551806204 
H48   H     0.60150353335582 0.99375428278342 0.80988093014750 
C1    C     0.34138240630215 0.41604767566724 0.59177274538706 
C2    C     0.65860118852342 0.58397128631135 0.59205770418627 
C3    C     0.90864193619373 0.66604471981335 0.84222249139619 
C4    C     0.59139159412578 0.83395771245971 0.84226417590577 
C5    C     0.29601436597922 0.41078599436366 0.63343952061058 
C6    C     0.70396606134204 0.58922153175048 0.63311740448509 
C7    C     0.95400017884173 0.66075941935788 0.88355651300770 
C8    C     0.54601228882109 0.83921316923656 0.88319329660544 
C9    C     0.27454300595428 0.37876376771912 0.56609455879454 
C10   C     0.72544801169874 0.62125370415576 0.56512433947063 
C11   C     0.97547186794981 0.62873411866977 0.81576861370887 
C12   C     0.52454611771560 0.87125123559439 0.81532226267455 
C13   C     0.36058354131486 0.44697027195801 0.66377795626474 
C14   C     0.63939206769198 0.55303224001903 0.66446478965077 
C15   C     0.88944257726980 0.69697267264856 0.91454828004134 
C16   C     0.61058374807218 0.80301662352653 0.91470663747103 
C17   C     0.27011542893221 0.43978509654552 0.72161058553670 
C18   C     0.72985283210628 0.56020276171409 0.72123314776630 
C19   C     0.97989388780646 0.68974132092224 0.97177755613944 
C20   C     0.52010174750075 0.81019482552624 0.97115413464272 
C21   C     0.29628509174260 0.34619730485500 0.56623255925310 
C22   C     0.70371165781874 0.65382259917917 0.56504737683173 
C23   C     0.95371513213366 0.59617791323883 0.81561533640702 
C24   C     0.54627495512612 0.90381916722811 0.81553124522880 
C25   C     0.22905903355447 0.37930908585818 0.50202796445009 
C26   C     0.77093815982488 0.62071542280293 0.50051713614707 
C27   C     0.02096900872805 0.62926443624682 0.75146470772937 
C28   C     0.47907549192533 0.87072132551234 0.75064024568504 
C29   C     0.33528961284656 0.47432299285723 0.78481309609037 
C30   C     0.66467162901486 0.52564999336057 0.78533414348133 
C31   C     0.91472429038772 0.72430783483418 0.03557528643193 
C32   C     0.58526788379089 0.77563419011834 0.03541709290887 
C33   C     0.29069705528939 0.47074528138045 0.80778281249236 
C34   C     0.70926099856687 0.52922386117034 0.80783045586046 
C35   C     0.95931045539836 0.72070623545494 0.05828072218996 
C36   C     0.54067020447453 0.77921176581448 0.05774305626772 
C37   C     0.27388436857995 0.31718354978611 0.42979889374005 
C38   C     0.72612113324378 0.68284773350095 0.42768549440069 
C39   C     0.97612499813102 0.56717264703076 0.67857889998863 
C40   C     0.52389376874900 0.93286004113821 0.67852504059159 
C41   C     0.22385890623145 0.43769966940476 0.70174657003123 
C42   C     0.77611192809898 0.56228944417839 0.70085407376109 
C43   C     0.02615335061167 0.68763765379682 0.95161827631903 
C44   C     0.47384911557676 0.81228774589301 0.95069161244927 
C45   C     0.33755247850559 0.34048260861447 0.72211565823447 
C46   C     0.66244431504978 0.65952685415344 0.72156056785216 
C47   C     0.91242005169452 0.59046043647901 0.97174005742605 
C48   C     0.58750273334121 0.90950389032742 0.97201165153224 
C49   C     0.20439034573741 0.40912170463253 0.57503071918918 
C50   C     0.79559734980180 0.59089080899761 0.57365870424119 
C51   C     0.04563579308769 0.65905918534779 0.82460653816682 
C52   C     0.45439864721374 0.84089554850015 0.82356402613987 
C53   C     0.20764829327119 0.34989044950909 0.36959906959413 
C54   C     0.79236354263028 0.65014943382825 0.36732568375130 
C55   C     0.04239373169979 0.59984976993539 0.61859199292671 
C56   C     0.45768353733859 0.90016643167259 0.61764435132675 
C57   C     0.22978268762753 0.32028875293368 0.31886638729679 
C58   C     0.77023065328093 0.67975364188818 0.31621471674000 
C59   C     0.02025258071844 0.57026814717160 0.56751040409943 
C60   C     0.47982061474943 0.92977699003369 0.56692352036560 
C61   C     0.35689409612575 0.30883687813565 0.72183445950636 
C62   C     0.64312067950889 0.69117948887923 0.72117676951697 
C63   C     0.89306641459802 0.55882336408245 0.97114260768268 
C64   C     0.60682258705031 0.94115378949069 0.97190784535060 
C65   C     0.29505038792695 0.28536198447732 0.42263263527230 
C66   C     0.70496361069394 0.71467317735659 0.42028287885583 
C67   C     0.95494302151552 0.53536402628479 0.67101488879682 
C68   C     0.54504372480577 0.96468599681417 0.67150252411500 
C69   C     0.33602153618644 0.28106914758529 0.56325768959922 
C70   C     0.66400361563195 0.71896286920222 0.56174788004228 
C71   C     0.91394986226017 0.53106932507935 0.81193180808308 
C72   C     0.58597091147874 0.96895579667484 0.81287118271486 
