data_stdin
_audit_creation_method 'critic2'
_audit_creation_date 2023-8-11
_chemical_formula_sum 'C18 H12'
_cell_formula_units_Z 18
_cell_length_a        40.2849936172
_cell_length_b        40.2657792982
_cell_length_c         3.8332004206
_cell_angle_alpha        89.9858
_cell_angle_beta        90.0047
_cell_angle_gamma       120.1156
_cell_volume          5378.541741
_space_group_crystal_system triclinic
_space_group_IT_number 2
_space_group_name_H-M_alt 'P-1'
_space_group_name_Hall '-P 1'
loop_
_symmetry_equiv_pos_site_id
_symmetry_equiv_pos_as_xyz
 1 'x,y,z'
 2 '-x,-y,-z'
 3 '-2/3+x,-1/3+y,-1/3+z'
 4 '-2/3-x,-1/3-y,-1/3-z'
 5 '-1/3+x,-2/3+y,-2/3+z'
 6 '-1/3-x,-2/3-y,-2/3-z'
loop_
_atom_site_label
_atom_site_type_symbol
_atom_site_fract_x
_atom_site_fract_y
_atom_site_fract_z
H1    H     0.51198737997057 0.71722085010444 0.62314800127014 
H2    H     0.28268865989159 0.79468448990095 0.62372294105222 
H3    H     0.20543752001995 0.48822933010314 0.62444189955542 
H4    H     0.44756738012987 0.70256431002747 0.77960639929175 
H5    H     0.29722345002247 0.74483985011388 0.77961336922509 
H6    H     0.25530442001609 0.55271794988583 0.78150527061550 
H7    H     0.40183732997802 0.63986881005769 0.06669944999079 
H8    H     0.35987860016944 0.76186124012288 0.06589665007105 
H9    H     0.23833305996450 0.59836365002516 0.06749086962858 
H10   H     0.42096840007529 0.59059910002983 0.13769457941540 
H11   H     0.40924540010853 0.83041433004805 0.13652759966187 
H12   H     0.16982880007008 0.57907004991726 0.13684437964998 
H13   H     0.46543316001706 0.56794673013403 0.02640886994297 
H14   H     0.43201899012129 0.89766445003652 0.02468926112243 
H15   H     0.10261464005477 0.53446814988415 0.02443346961745 
H16   H     0.55485583007403 0.74178214007560 0.95682217044148 
H17   H     0.25829131007188 0.81304376007930 0.95860877013190 
H18   H     0.18698417995797 0.44532481993902 0.95817402918143 
H19   H     0.52718744988122 0.57898378994392 0.78462977019261 
H20   H     0.42109986011971 0.94844317007265 0.78259487998524 
H21   H     0.05182977987326 0.47264337994132 0.78188041063335 
H22   H     0.58890453991581 0.61989479005010 0.53842993959752 
H23   H     0.38024526006656 0.96926655009645 0.53758148024137 
H24   H     0.03094260008357 0.41089008001002 0.53686785035298 
H25   H     0.64171875998982 0.68434965999352 0.36741919003498 
H26   H     0.31585491009956 0.95755696001651 0.36759725883901 
H27   H     0.04255564995169 0.35816400001569 0.36661011053395 
H28   H     0.61072163999629 0.80493794006959 0.86159155095827 
H29   H     0.19520028006959 0.80570447995879 0.86473284011879 
H30   H     0.19420260990391 0.38951097999061 0.86384461934036 
H31   H     0.66995521011804 0.75310890011631 0.37705828105060 
H32   H     0.24710513000319 0.91689436986410 0.37792284994146 
H33   H     0.08309622990181 0.33009565003428 0.37675429027659 
H34   H     0.66864733007743 0.81186751995801 0.55224820008675 
H35   H     0.18833575998636 0.85671639014313 0.55479431098168 
H36   H     0.14316455994924 0.33153154008254 0.55355411979975 
C1    C     0.49331688003331 0.69029291988584 0.75486467957495 
C2    C     0.30960979988526 0.80296727993376 0.75499595087262 
C3    C     0.19717392999324 0.50685978995632 0.75570851998410 
C4    C     0.50629717991454 0.66394780000917 0.81646572992142 
C5    C     0.33601536985262 0.84237450988648 0.81634549040725 
C6    C     0.15778491009483 0.49378743005677 0.81641623921514 
C7    C     0.54478783997089 0.67177972989217 0.73877675013104 
C8    C     0.32826032010356 0.87307972002354 0.73882252915259 
C9    C     0.12706429009300 0.45524728010366 0.73843867063170 
C10   C     0.45644420997690 0.68169648996731 0.83856686021745 
C11   C     0.31813522005318 0.77464694003561 0.83840392111336 
C12   C     0.22550936997773 0.54377225004852 0.83973015061444 
C13   C     0.47832506012051 0.62645426004571 0.93754624109831 
C14   C     0.37348316003992 0.85193390009584 0.93687246932356 
C15   C     0.14827193981988 0.52170997987812 0.93689146945207 
C16   C     0.57770911007391 0.70987490001777 0.69457189110562 
C17   C     0.29021116998581 0.86787538991785 0.69536158015057 
C18   C     0.13220641008600 0.42236763993351 0.69475571082689 
C19   C     0.55071855998782 0.64002259000251 0.70658443089986 
C20   C     0.36005142014090 0.91084596011678 0.70597334967416 
C21   C     0.08934330998236 0.44922215008918 0.70539752875473 
C22   C     0.43052131996993 0.64619825995086 0.99176379049420 
C23   C     0.35361194003258 0.78425594999418 0.99114386915912 
C24   C     0.21593307017230 0.56964801011267 0.99231556997475 
C25   C     0.44127986989493 0.61885919987319 0.03428001114764 
C26   C     0.38100327010740 0.82243542005620 0.03344529013549 
C27   C     0.17778000011514 0.55879968006128 0.03393049026708 
C28   C     0.61245089994283 0.71393893008591 0.55109041006243 
C29   C     0.28619919008380 0.89858681996911 0.55176453086160 
C30   C     0.10148332017849 0.38757888012536 0.55091282021736 
C31   C     0.48720950005276 0.59638123010284 0.93855757948385 
C32   C     0.40360278994217 0.89097592998692 0.93731322066221 
C33   C     0.10927020988917 0.51273321986013 0.93696197967912 
C34   C     0.57892551993132 0.74388984991853 0.81109799027445 
C35   C     0.25620207008464 0.83502048993425 0.81278132118829 
C36   C     0.16500180015935 0.42122669012372 0.81212297058432 
C37   C     0.52136794005949 0.60255906007861 0.80816884884038 
C38   C     0.39748886995437 0.91899267986186 0.80681960939339 
C39   C     0.08124880995074 0.47853243011319 0.80625296011021 
C40   C     0.58608776996194 0.64521068985848 0.57324508921735 
C41   C     0.35491687984586 0.94106786991642 0.57276364945817 
C42   C     0.05910564995976 0.41379388996016 0.57201984050439 
C43   C     0.61532862997925 0.68069737002700 0.48222287099593 
C44   C     0.31946026011553 0.93478297013682 0.48230926001649 
C45   C     0.06533488012994 0.38459839002972 0.48145016901199 
C46   C     0.61096784005825 0.77970328990309 0.76349980908555 
C47   C     0.22043308993376 0.83122191001138 0.76591727046595 
C48   C     0.16873260993152 0.38921622992875 0.76501566014860 
C49   C     0.64441211016952 0.75096045014206 0.49580540962261 
C50   C     0.24921706002906 0.89348438987212 0.49701179873941 
C51   C     0.10651796006783 0.35566423011979 0.49593004943307 
C52   C     0.64376093993440 0.78354906996064 0.59545289118075 
C53   C     0.21662616008871 0.86018403014105 0.59754470068755 
C54   C     0.13975871994077 0.35638970997157 0.59644699883226 
