data_stdin
_audit_creation_method 'critic2'
_audit_creation_date 2023-8-11
_chemical_formula_sum 'C18 H12'
_cell_formula_units_Z 4
_cell_length_a         4.7504908652
_cell_length_b         7.4222000329
_cell_length_c        33.2075074024
_cell_angle_alpha        89.9996
_cell_angle_beta        86.9391
_cell_angle_gamma        89.9993
_cell_volume          1169.196213
_space_group_crystal_system monoclinic
_space_group_IT_number 14
_space_group_name_H-M_alt 'P2_1/c'
_space_group_name_Hall '-P 2ybc'
loop_
_symmetry_equiv_pos_site_id
_symmetry_equiv_pos_as_xyz
 1 'x,y,z'
 2 '-x,-y,-z'
 3 '-x,-1/2+y,-1/2-z'
 4 'x,-1/2-y,-1/2+z'
loop_
_atom_site_label
_atom_site_type_symbol
_atom_site_fract_x
_atom_site_fract_y
_atom_site_fract_z
H1    H     0.84358779995795 0.96692471985020 0.09329676989245 
H2    H     0.21443436064673 0.92336403059320 0.04087217995061 
H3    H     0.44105245061986 0.18736392035987 0.00544223986869 
H4    H     0.25314368920586 0.49409563011883 0.02016092985217 
H5    H     0.91536824981255 0.69044123056698 0.05347118012167 
H6    H     0.91300280011525 0.97802591979816 0.14731729004356 
H7    H     0.51346071071806 0.73988915945450 0.10344563006983 
H8    H     0.19848993022531 0.64039486953845 0.15530041992466 
H9    H     0.02395362006406 0.40973487058710 0.20458143988266 
H10   H     0.75877791979490 0.76899199945088 0.20011208008932 
H11   H     0.08006091998495 0.12503342968319 0.23709286004334 
H12   H     0.33902935967538 0.83597413998968 0.24567002003537 
C1    C     0.94265145891934 0.08488292970723 0.07957845014151 
C2    C     0.84902798917925 0.25925693995699 0.09168969985639 
C3    C     0.64642246968637 0.29508247937463 0.12509269995067 
C4    C     0.14966576053629 0.05965059964693 0.04921185001932 
C5    C     0.95568286976869 0.40701822025425 0.06756008014465 
C6    C     0.56878183038845 0.16824895979078 0.15716004009279 
C7    C     0.52023264928848 0.46872784024302 0.12715341990827 
C8    C     0.27331294964712 0.20773004029714 0.02860599011334 
C9    C     0.17150453914365 0.37822645967355 0.03718262010422 
C10   C     0.33974607091581 0.21180603012738 0.18552674005113 
C11   C     0.83623622954292 0.58188127944259 0.07300755992932 
C12   C     0.71870701989031 0.00716453992749 0.16462439998147 
C13   C     0.61662819944207 0.60902977015153 0.10050703012101 
C14   C     0.29547805105696 0.50759930005809 0.15604584994302 
C15   C     0.20125103096126 0.38149549969000 0.18338033007723 
C16   C     0.63610649910246 0.89037210051603 0.19547953988093 
C17   C     0.25858888918669 0.08926743988930 0.21670447004308 
C18   C     0.40069517981462 0.92917549992450 0.22147281012429 
