data_stdin
_audit_creation_method 'critic2'
_audit_creation_date 2023-8-11
_chemical_formula_sum 'C18 H12'
_cell_formula_units_Z 4
_cell_length_a         7.6038318357
_cell_length_b        33.6399346810
_cell_length_c         4.8000699145
_cell_angle_alpha        90.0014
_cell_angle_beta        80.2819
_cell_angle_gamma        90.0146
_cell_volume          1210.202572
_space_group_crystal_system triclinic
_space_group_IT_number 2
_space_group_name_H-M_alt 'P-1'
_space_group_name_Hall '-P 1'
loop_
_symmetry_equiv_pos_site_id
_symmetry_equiv_pos_as_xyz
 1 'x,y,z'
 2 '-x,-y,-z'
loop_
_atom_site_label
_atom_site_type_symbol
_atom_site_fract_x
_atom_site_fract_y
_atom_site_fract_z
H1    H     0.98356115052111 0.14282603993061 0.56860019910719 
H2    H     0.01662299050959 0.64283172008459 0.93114143051567 
H3    H     0.18567864935602 0.19053033992791 0.72876531070657 
H4    H     0.81462357045568 0.69054238989358 0.77102550916606 
H5    H     0.08750945985132 0.23095271002573 0.16533517996685 
H6    H     0.91288231011880 0.73096710987884 0.33445168979965 
H7    H     0.77813819933571 0.22416275012991 0.42121781031801 
H8    H     0.22220621947137 0.72416850006979 0.07850191976967 
H9    H     0.48496004973442 0.19531028000656 0.47261670007910 
H10   H     0.51532929934370 0.69531210989527 0.02708971095225 
H11   H     0.98009153026433 0.08805464987655 0.65577343022326 
H12   H     0.01995511016942 0.58806284990142 0.84399075006475 
H13   H     0.26695513038391 0.15114383002551 0.29160867019775 
H14   H     0.73323667956743 0.65114857011444 0.20812265981943 
H15   H     0.19363432008897 0.10273264012415 0.97639016897693 
H16   H     0.80645579940137 0.60274325003620 0.52340338020334 
H17   H     0.27685786018898 0.05629241992228 0.57226974105692 
H18   H     0.72311862975090 0.55629942994533 0.92750299096975 
H19   H     0.05529315014134 0.03757350999928 0.29124122995309 
H20   H     0.94462939048506 0.53758258004287 0.20853852946572 
H21   H     0.50049379944106 0.02403257992687 0.23402201044015 
H22   H     0.49940103941309 0.52403608006974 0.26573640973534 
H23   H     0.81730094958777 0.00712618006669 0.05692507947500 
H24   H     0.18255251961097 0.50713276996476 0.44285181916829 
C1    C     0.94040617981300 0.15824362014530 0.76643115989182 
C2    C     0.05980905052827 0.65825072987437 0.73331517948309 
C3    C     0.76709507939238 0.15104821988012 0.92019794064043 
C4    C     0.23309808938345 0.65105433011317 0.57953644991226 
C5    C     0.64544788014235 0.12140057006446 0.84191731023596 
C6    C     0.35467818955392 0.62140669012374 0.65782925964148 
C7    C     0.05337344960062 0.18619974011433 0.85272410947530 
C8    C     0.94691004992570 0.68620973013650 0.64704395939194 
C9    C     0.70717618952965 0.17708679995453 0.15428012048561 
C10   C     0.29307416989556 0.67709191010876 0.34544587941208 
C11   C     0.69672502053326 0.08955591997057 0.64028286086168 
C12   C     0.30332701989662 0.58956245994415 0.85947411064451 
C13   C     0.46310477944739 0.12393248003570 0.96966486017569 
C14   C     0.53702764061760 0.62393932997844 0.53008594894845 
C15   C     0.99785170957458 0.20929842004538 0.09558525028747 
C16   C     0.00248108958722 0.70930867990234 0.40418057055350 
C17   C     0.82557914069964 0.20528083985517 0.23963751906339 
C18   C     0.17473454057719 0.70528735007207 0.26009632917177 
C19   C     0.56019074924044 0.06782711989304 0.53300327095815 
C20   C     0.43980932004426 0.56783254004271 0.96675650050494 
C21   C     0.52620683022279 0.17564148011742 0.29301994915425 
C22   C     0.47403852052067 0.67564522010064 0.20670053094520 
C23   C     0.87473963962045 0.07633576987034 0.55284994933959 
C24   C     0.12527884046029 0.57634324992465 0.94691694969486 
C25   C     0.40729717941243 0.15104293987662 0.19596465097873 
C26   C     0.59289474026074 0.65104818997622 0.30377067931071 
C27   C     0.33207478025839 0.09945881009719 0.87396808018922 
C28   C     0.66800351062616 0.59946702008456 0.62580499923497 
C29   C     0.37764679994585 0.07383662987379 0.65308983975488 
C30   C     0.62237044956122 0.57384338993161 0.84667637947374 
C31   C     0.91711197017870 0.04711928008249 0.34969849911862 
C32   C     0.08283491028966 0.54712761000587 0.15007772000373 
C33   C     0.60712805955322 0.03900277985854 0.31854977086610 
C34   C     0.39280228055644 0.53900785009441 0.18121219071501 
C35   C     0.78313333035540 0.02922242996487 0.22274183929799 
C36   C     0.21677255994812 0.52922866003670 0.27702800043624 
