data_stdin
_audit_creation_method 'critic2'
_audit_creation_date 2023-8-11
_chemical_formula_sum 'C18 H12'
_cell_formula_units_Z 4
_cell_length_a         7.7329056077
_cell_length_b         4.6014719063
_cell_length_c        33.9684926763
_cell_angle_alpha        90.0005
_cell_angle_beta        78.1299
_cell_angle_gamma        89.9988
_cell_volume          1182.845986
_space_group_crystal_system monoclinic
_space_group_IT_number 14
_space_group_name_H-M_alt 'P2_1/c'
_space_group_name_Hall '-P 2ybc'
loop_
_symmetry_equiv_pos_site_id
_symmetry_equiv_pos_as_xyz
 1 'x,y,z'
 2 '-x,-y,-z'
 3 '-x,-1/2+y,-1/2-z'
 4 'x,-1/2-y,-1/2+z'
loop_
_atom_site_label
_atom_site_type_symbol
_atom_site_fract_x
_atom_site_fract_y
_atom_site_fract_z
H1    H     0.07236812950281 0.35286795102763 0.41044830990592 
H2    H     0.97998008948898 0.69729957968167 0.46515501999423 
H3    H     0.20238489050141 0.93334476062710 0.49870895010642 
H4    H     0.51665126036614 0.77882991021939 0.47963093990844 
H5    H     0.74231574999898 0.47240834975679 0.44246138011989 
H6    H     0.11917095037449 0.46739173092311 0.35654070007833 
H7    H     0.83763632970469 0.08824281965438 0.39093589006684 
H8    H     0.78753520982062 0.78542039014009 0.33885014999098 
H9    H     0.60515942957154 0.62016542052427 0.29090042013770 
H10   H     0.95478099048898 0.31688927095960 0.30651865995264 
H11   H     0.34900596969098 0.67079476023950 0.26215880986795 
H12   H     0.06292264943292 0.90957915978076 0.25914264006887 
C1    C     0.17310718036586 0.45950188027331 0.42319694014265 
C2    C     0.35361029029257 0.38791214011191 0.40877540008806 
C3    C     0.41852686056223 0.20278813070918 0.37425429992786 
C4    C     0.11999423058113 0.65077559009279 0.45478332986359 
C5    C     0.47610635952726 0.49621422932539 0.43174164005359 
C6    C     0.32074605961808 0.13239795039178 0.34328080007016 
C7    C     0.59179002019921 0.08711002003388 0.37003088014017 
C8    C     0.24449581991928 0.77871825015465 0.47437162006012 
C9    C     0.41922595021426 0.69599600032802 0.46343800003023 
C10   C     0.38987483023254 0.91689674983710 0.31356067996497 
C11   C     0.65317026048833 0.39133218072977 0.42399237987188 
C12   C     0.16503470068296 0.27855945078536 0.33831615985965 
C13   C     0.70564847946052 0.18217361913172 0.39558308003865 
C14   C     0.65661965975259 0.87597083073105 0.33984368013632 
C15   C     0.55711095967990 0.78623986949034 0.31332393987967 
C16   C     0.07439060932759 0.19918674953601 0.30888047013718 
C17   C     0.29465863935644 0.83949030964058 0.28370326005587 
C18   C     0.13673309034581 0.97332432008252 0.28180101002478 
