data_stdin
_audit_creation_method 'critic2'
_audit_creation_date 2023-8-11
_chemical_formula_sum 'C18 H12'
_cell_formula_units_Z 4
_cell_length_a         4.9862437507
_cell_length_b        16.4438487016
_cell_length_c        14.7246184778
_cell_angle_alpha        90.0008
_cell_angle_beta        84.0289
_cell_angle_gamma        90.0034
_cell_volume          1200.765974
_space_group_crystal_system monoclinic
_space_group_IT_number 14
_space_group_name_H-M_alt 'P2_1/c'
_space_group_name_Hall '-P 2ybc'
loop_
_symmetry_equiv_pos_site_id
_symmetry_equiv_pos_as_xyz
 1 'x,y,z'
 2 '-x,-y,-z'
 3 '-x,-1/2+y,-1/2-z'
 4 'x,-1/2-y,-1/2+z'
loop_
_atom_site_label
_atom_site_type_symbol
_atom_site_fract_x
_atom_site_fract_y
_atom_site_fract_z
H1    H     0.29630505926383 0.27670927994123 0.69514486023166 
H2    H     0.64865482975798 0.38051947010246 0.69147955008837 
H3    H     0.91453325976277 0.39958101026020 0.82488683976510 
H4    H     0.79763482978555 0.31674395983717 0.96498032031975 
H5    H     0.51864767066741 0.21863916011335 0.05001048010209 
H6    H     0.38289893970387 0.16979355974115 0.64844536969256 
H7    H     0.13219653108234 0.12213565975571 0.06128989971356 
H8    H     0.79429022918144 0.04790603023241 0.99371700009654 
H9    H     0.57515904054267 0.00285242973771 0.85891243000573 
H10   H     0.19024977095914 0.11375619992864 0.51702722008618 
H11   H     0.56997583099989 0.99587250008221 0.69501412992492 
H12   H     0.76813967009537 0.02967381997226 0.53827864994334 
C1    C     0.41760901068867 0.28093326029703 0.75197183974426 
C2    C     0.36303113925823 0.22771818029136 0.82749163033025 
C3    C     0.17369763950408 0.16054745989425 0.83019872022300 
C4    C     0.61189795925120 0.34114370994214 0.75102757985809 
C5    C     0.49423050916495 0.24570308013370 0.90725760991102 
C6    C     0.07337807068663 0.12477982987809 0.75022495991916 
C7    C     0.08157735069990 0.12726651984726 0.91697360990671 
C8    C     0.75873364940300 0.35302523982069 0.82664764968645 
C9    C     0.69506212980926 0.30675300972174 0.90414237971310 
C10   C     0.85099260980846 0.06897339018759 0.76189348029526 
C11   C     0.41369763978871 0.20441346984334 0.99068899026453 
C12   C     0.19454170998399 0.13676061005036 0.65975154008103 
C13   C     0.20395281058230 0.15062994022387 0.99642395009420 
C14   C     0.86584793033277 0.06977363972889 0.92567858975608 
C15   C     0.74702330111231 0.04406348986302 0.85134280969458 
C16   C     0.08859301987440 0.10306809975160 0.58513243983252 
C17   C     0.74286132046842 0.03645131007605 0.68451589974623 
C18   C     0.85532511975334 0.05446277002253 0.59714862988473 
