data_stdin
_audit_creation_method 'critic2'
_audit_creation_date 2023-8-11
_chemical_formula_sum 'C18 H12'
_cell_formula_units_Z 8
_cell_length_a        22.9016075998
_cell_length_b         7.2934671604
_cell_length_c        15.6938507128
_cell_angle_alpha        89.9985
_cell_angle_beta        63.9481
_cell_angle_gamma        89.9996
_cell_volume          2355.036202
_space_group_crystal_system monoclinic
_space_group_IT_number 15
_space_group_name_H-M_alt 'C2/c'
_space_group_name_Hall '-C 2yc'
loop_
_symmetry_equiv_pos_site_id
_symmetry_equiv_pos_as_xyz
 1 'x,y,z'
 2 '-x,-y,-z'
 3 '-x,y,-1/2-z'
 4 'x,-y,-1/2+z'
 5 '-1/2+x,-1/2+y,z'
 6 '-1/2-x,-1/2-y,-z'
 7 '-1/2-x,-1/2+y,-1/2-z'
 8 '-1/2+x,-1/2-y,-1/2+z'
loop_
_atom_site_label
_atom_site_type_symbol
_atom_site_fract_x
_atom_site_fract_y
_atom_site_fract_z
H1    H     0.35898891986033 0.00985017066257 0.21248814025070 
H2    H     0.45403683011059 0.08111059986261 0.23953050969389 
H3    H     0.54856889989599 0.25100747032778 0.11683154015759 
H4    H     0.54849575022770 0.32724396016061 0.96316081971662 
H5    H     0.49788112988050 0.31195987043852 0.85497768002988 
H6    H     0.28701971008463 0.20635828039169 0.24819971007717 
H7    H     0.40908244997810 0.19699777999838 0.81936373984073 
H8    H     0.30537976982079 0.04551904990785 0.86712561014109 
H9    H     0.20177787986185 0.93071056968357 0.99261550014499 
H10   H     0.17573518001250 0.15813886949381 0.36831706015050 
H11   H     0.12594741996436 0.91373423975750 0.15941282997741 
H12   H     0.09503364984358 0.99607241051506 0.32691249009774 
C1    C     0.39863902998472 0.08868360011753 0.15983432001027 
C2    C     0.39490757009116 0.14307414001535 0.07567399988102 
C3    C     0.33859943008375 0.10991264931814 0.05873060027604 
C4    C     0.45269159987237 0.12674908066463 0.17439749026960 
C5    C     0.45189138989243 0.22274090935960 0.00187969972862 
C6    C     0.27366396991178 0.07888476019134 0.13298082973459 
C7    C     0.34723220994769 0.11260310984699 0.96350030971244 
C8    C     0.50615003000931 0.22060923023224 0.10501605023961 
C9    C     0.50600493011449 0.26417167016976 0.01947024974192 
C10   C     0.22501873006776 0.00726913986152 0.10780012027134 
C11   C     0.45461112973435 0.24932120969962 0.91018486023163 
C12   C     0.25334657988820 0.13392582025929 0.22853589979158 
C13   C     0.40558813019334 0.18631060971019 0.89065725981105 
C14   C     0.29702933014347 0.04605865966965 0.94098449017539 
C15   C     0.23935438008113 0.98512022980213 0.01031192983968 
C16   C     0.19001364021996 0.10866704959879 0.29642028969240 
C17   C     0.16162190023835 0.97363503032466 0.17962578983432 
C18   C     0.14412465011129 0.02250737934463 0.27274146991369 
