data_stdin
_audit_creation_method 'critic2'
_audit_creation_date 2023-8-11
_chemical_formula_sum 'C18 H12'
_cell_formula_units_Z 4
_cell_length_a         9.0484857126
_cell_length_b         7.1556170716
_cell_length_c        20.1925099381
_cell_angle_alpha        90.0007
_cell_angle_beta        64.3337
_cell_angle_gamma        90.0014
_cell_volume          1178.414295
_space_group_crystal_system monoclinic
_space_group_IT_number 14
_space_group_name_H-M_alt 'P2_1/c'
_space_group_name_Hall '-P 2ybc'
loop_
_symmetry_equiv_pos_site_id
_symmetry_equiv_pos_as_xyz
 1 'x,y,z'
 2 '-x,-y,-z'
 3 '-x,-1/2+y,-1/2-z'
 4 'x,-1/2-y,-1/2+z'
loop_
_atom_site_label
_atom_site_type_symbol
_atom_site_fract_x
_atom_site_fract_y
_atom_site_fract_z
H1    H     0.81359174198380 0.38191666316003 0.11671316069652 
H2    H     0.96277446342348 0.14920636138335 0.02412109333629 
H3    H     0.26729083606976 0.17090829613810 0.95236177433280 
H4    H     0.41200895869677 0.44885343874622 0.96881875507728 
H5    H     0.40652900340894 0.75638276655459 0.01900159118787 
H6    H     0.76493660490229 0.35504782596770 0.21563750819723 
H7    H     0.25236921082877 0.01305723964572 0.10301761732844 
H8    H     0.01489556842292 0.13543149553334 0.19855536004801 
H9    H     0.73326150695946 0.10058029895524 0.29745961857714 
H10   H     0.49590030616550 0.32567400597806 0.31757150908749 
H11   H     0.49747320961695 0.91166988434462 0.36485714590706 
H12   H     0.35390945595786 0.60590166920356 0.39314879056648 
C1    C     0.94597972223311 0.39217694281320 0.08868323344766 
C2    C     0.02637484325278 0.54479053984769 0.10405193815520 
C3    C     0.94455071894452 0.68280988500888 0.16108949929596 
C4    C     0.03018842789390 0.26135261099746 0.03521079965143 
C5    C     0.19701524999098 0.56889231779650 0.05579964027784 
C6    C     0.78618194918252 0.65593396010610 0.22351546386973 
C7    C     0.02731659614140 0.85476940839994 0.15645166012731 
C8    C     0.20089786090801 0.27556438532969 0.99368409979054 
C9    C     0.28157586974132 0.42930855759753 0.00330074042480 
C10   C     0.70980120225555 0.81127930299865 0.27119360565335 
C11   C     0.27813465542644 0.73849432587571 0.05748629548410 
C12   C     0.70524976833573 0.48087213633023 0.24469867816838 
C13   C     0.19348538902100 0.87981983137691 0.10378180269823 
C14   C     0.94793757663761 0.00493740550419 0.20553434563328 
C15   C     0.79285505349817 0.98575392738372 0.25992735605700 
C16   C     0.55349570401184 0.46286620679614 0.30409596885587 
C17   C     0.55385735735127 0.78958345570364 0.33118865615034 
C18   C     0.47440033007750 0.61933669163300 0.34701870062814 
