data_stdin
_audit_creation_method 'critic2'
_audit_creation_date 2023-8-11
_chemical_formula_sum 'C18 H12'
_cell_formula_units_Z 8
_cell_length_a        19.6995942009
_cell_length_b         5.0808046547
_cell_length_c        24.7720827591
_cell_angle_alpha        90.0070
_cell_angle_beta        76.9177
_cell_angle_gamma        90.0081
_cell_volume          2415.081024
_space_group_crystal_system monoclinic
_space_group_IT_number 15
_space_group_name_H-M_alt 'C2/c'
_space_group_name_Hall '-C 2yc'
loop_
_symmetry_equiv_pos_site_id
_symmetry_equiv_pos_as_xyz
 1 'x,y,z'
 2 '-1/2-x,-1/2-y,-z'
 3 '-x,y,-1/2-z'
 4 'x,-y,-1/2+z'
 5 '-1/2+x,-1/2+y,z'
 6 '-x,-y,-z'
 7 '-1/2-x,-1/2+y,-1/2-z'
 8 '-1/2+x,-1/2-y,-1/2+z'
loop_
_atom_site_label
_atom_site_type_symbol
_atom_site_fract_x
_atom_site_fract_y
_atom_site_fract_z
H1    H     0.25990074019193 0.13484080966452 0.03271910989476 
H2    H     0.30926332001566 0.81239917036017 0.96191600983092 
H3    H     0.42072309985759 0.58063143002895 0.96442784008984 
H4    H     0.48808115993353 0.72458864933250 0.03272497005150 
H5    H     0.50514844011480 0.02406779941769 0.10436781017776 
H6    H     0.19841356984407 0.02553856973752 0.10295262020166 
H7    H     0.46398015986650 0.40107286975194 0.16713483006741 
H8    H     0.37737430007565 0.72366334095182 0.20547022999590 
H9    H     0.25597389000901 0.88467773952311 0.22404060983912 
H10   H     0.07654862985398 0.14404872067069 0.13620247999851 
H11   H     0.13590241991530 0.80632689961424 0.22386136981466 
H12   H     0.04283929985572 0.54064230977730 0.19623595019606 
C1    C     0.30811235982664 0.03715436947719 0.03503157981717 
C2    C     0.34218729975398 0.10800200996024 0.07751628012646 
C3    C     0.31386877998709 0.29205644028119 0.12154049986321 
C4    C     0.33635415021688 0.85517859953866 0.99461546000957 
C5    C     0.41053997995993 0.00215785063633 0.07372781020767 
C6    C     0.24057603982269 0.35899563920601 0.13925095995039 
C7    C     0.36079078005605 0.40959233963139 0.15031228985448 
C8    C     0.39984747019163 0.72987546918396 0.99523798008450 
C9    C     0.43680601016604 0.80695116983725 0.03371037013147 
C10   C     0.22049699011730 0.57588216053892 0.17654917012924 
C11   C     0.45297540989253 0.10425630024710 0.10841073013960 
C12   C     0.18603014975036 0.20628675921170 0.12634173017152 
C13   C     0.43009423992240 0.31069093951252 0.14311460993938 
C14   C     0.33905086985755 0.62659378096493 0.18669650991996 
C15   C     0.27197565984296 0.71558512088612 0.19729867979032 
C16   C     0.11662352997135 0.27067942076784 0.14624310015449 
C17   C     0.14914040005099 0.64001463027180 0.19574217003136 
C18   C     0.09764305019287 0.49188269907689 0.18059325008429 
