data_stdin
_audit_creation_method 'critic2'
_audit_creation_date 2023-8-11
_chemical_formula_sum 'C18 H12'
_cell_formula_units_Z 2
_cell_length_a         8.4973757802
_cell_length_b         7.8591511869
_cell_length_c        10.2666355215
_cell_angle_alpha        79.2196
_cell_angle_beta       114.0844
_cell_angle_gamma        83.9707
_cell_volume           602.188979
_space_group_crystal_system triclinic
_space_group_IT_number 2
_space_group_name_H-M_alt 'P-1'
_space_group_name_Hall '-P 1'
loop_
_symmetry_equiv_pos_site_id
_symmetry_equiv_pos_as_xyz
 1 'x,y,z'
 2 '-x,-y,-z'
loop_
_atom_site_label
_atom_site_type_symbol
_atom_site_fract_x
_atom_site_fract_y
_atom_site_fract_z
H1    H     0.93282722996453 0.91202228955946 0.26505679978176 
H2    H     0.98621238930406 0.63954084060140 0.44799001979249 
H3    H     0.85979728033834 0.63092098962636 0.62948071012032 
H4    H     0.69040313951669 0.90875623004054 0.62997011985358 
H5    H     0.58379600037366 0.22547560960373 0.54078133039039 
H6    H     0.73478887047772 0.98481753934667 0.06588841025889 
H7    H     0.57125468071131 0.51238859944113 0.38286721016898 
H8    H     0.62844576977022 0.68055975986193 0.19495034945401 
H9    H     0.73144010947268 0.70148246040844 0.99923047965359 
H10   H     0.79386521991712 0.01783881948167 0.84942870036724 
H11   H     0.81597031949375 0.56413750034147 0.84048370986488 
H12   H     0.84609937953431 0.30527591022151 0.73892152992588 
C1    C     0.86972653994671 0.91141494986176 0.33804835988669 
C2    C     0.76597019933175 0.07034556009119 0.32948665978406 
C3    C     0.73244549040503 0.23575364973544 0.22318078024740 
C4    C     0.90225870005999 0.75717504052706 0.44328267005347 
C5    C     0.70755854044368 0.06809958966126 0.44257263025119 
C6    C     0.75824461985182 0.25040165971180 0.09067319974094 
C7    C     0.67484008958916 0.39433686985201 0.25235951017250 
C8    C     0.83308540020286 0.75303413048697 0.54679510018244 
C9    C     0.73899191967625 0.90732591973805 0.54692705017707 
C10   C     0.76747197018685 0.41974597008269 0.01579654054508 
C11   C     0.62960952036538 0.22996987985112 0.45562354012847 
C12   C     0.76202708052830 0.10949001028216 0.02277947004998 
C13   C     0.62112380007235 0.38772130930737 0.36778216045241 
C14   C     0.67200041981670 0.56216757970818 0.16816424035964 
C15   C     0.72701268989173 0.57385188972695 0.05971348023870 
C16   C     0.79166973969222 0.12911850939389 0.89834504043971 
C17   C     0.80428795954436 0.43482873048990 0.89212449028052 
C18   C     0.81951684971133 0.29142973954616 0.83514875044759 
