data_stdin
_audit_creation_method 'critic2'
_audit_creation_date 2023-8-11
_chemical_formula_sum 'C18 H12'
_cell_formula_units_Z 2
_cell_length_a         7.8586539815
_cell_length_b        10.2544951335
_cell_length_c         8.5104976603
_cell_angle_alpha       114.0643
_cell_angle_beta        96.1759
_cell_angle_gamma       100.7642
_cell_volume           602.161763
_space_group_crystal_system triclinic
_space_group_IT_number 2
_space_group_name_H-M_alt 'P-1'
_space_group_name_Hall '-P 1'
loop_
_symmetry_equiv_pos_site_id
_symmetry_equiv_pos_as_xyz
 1 'x,y,z'
 2 '-x,-y,-z'
loop_
_atom_site_label
_atom_site_type_symbol
_atom_site_fract_x
_atom_site_fract_y
_atom_site_fract_z
H1    H     0.98547140939085 0.43432403968082 0.26405025943461 
H2    H     0.01894741948112 0.65096812016635 0.20511308022109 
H3    H     0.30672299998352 0.76154857971118 0.15365130030473 
H4    H     0.56542476975562 0.65971966002745 0.18440968040365 
H5    H     0.70249511029912 0.50088284022050 0.26938707971023 
H6    H     0.91237958934357 0.23482032015114 0.06666962945458 
H7    H     0.68126718021169 0.30486121004253 0.37212701941904 
H8    H     0.51281366952779 0.11701995965211 0.42926500977414 
H9    H     0.22556972955133 0.95922698015054 0.41668753024084 
H10   H     0.63956651920070 0.05197149942694 0.01323072948234 
H11   H     0.90850500972671 0.87016198936899 0.30992388960158 
H12   H     0.63058337062400 0.87061146019559 0.13998426951621 
C1    C     0.11032494005954 0.47741463060322 0.23723271056614 
C2    C     0.25116088031740 0.40938948025967 0.24147211952750 
C3    C     0.23631367063518 0.27679579032679 0.26741318958639 
C4    C     0.13021187030654 0.60199306034509 0.20762644037294 
C5    C     0.42066139047456 0.48429404979478 0.23263199993235 
C6    C     0.07066890050327 0.17050040964139 0.23387561984903 
C7    C     0.39486799035411 0.24752744058359 0.32528505037883 
C8    C     0.29268672014561 0.66520813000954 0.18019993024989 
C9    C     0.43598696034466 0.60808800054107 0.19579807050869 
C10   C     0.06825307985198 0.05745884958137 0.29253876983869 
C11   C     0.57473749954572 0.44030296982709 0.27346229969289 
C12   C     0.91167374063150 0.16190419035561 0.12992011989687 
C13   C     0.56287320981983 0.33171556038597 0.32838718031336 
C14   C     0.38809030058679 0.13208934009588 0.37917657948870 
C15   C     0.23018968072129 0.04435318027052 0.37070010064642 
C16   C     0.75720464999268 0.05668837014671 0.09738246955759 
C17   C     0.90725902990148 0.95316088040634 0.26112408023239 
C18   C     0.75290656010592 0.95325685005305 0.16677462058877 
