data_stdin
_audit_creation_method 'critic2'
_audit_creation_date 2023-8-11
_chemical_formula_sum 'C18 H12'
_cell_formula_units_Z 8
_cell_length_a        21.4490279740
_cell_length_b         8.0320169551
_cell_length_c        15.6083960858
_cell_angle_alpha        89.9975
_cell_angle_beta        63.1817
_cell_angle_gamma        89.9993
_cell_volume          2399.773482
_space_group_crystal_system monoclinic
_space_group_IT_number 15
_space_group_name_H-M_alt 'C2/c'
_space_group_name_Hall '-C 2yc'
loop_
_symmetry_equiv_pos_site_id
_symmetry_equiv_pos_as_xyz
 1 'x,y,z'
 2 '-1/2-x,-1/2-y,-z'
 3 '-x,y,-1/2-z'
 4 'x,-y,-1/2+z'
 5 '-1/2+x,-1/2+y,z'
 6 '-x,-y,-z'
 7 '-1/2-x,-1/2+y,-1/2-z'
 8 '-1/2+x,-1/2-y,-1/2+z'
loop_
_atom_site_label
_atom_site_type_symbol
_atom_site_fract_x
_atom_site_fract_y
_atom_site_fract_z
H1    H     0.40717256014913 0.45551253979254 0.40018216971058 
H2    H     0.51614365006745 0.50998803969978 0.40867426026971 
H3    H     0.59695868998880 0.27692682986866 0.39596308998004 
H4    H     0.56251851990731 0.98647340053765 0.38250189978502 
H5    H     0.47924817000339 0.78765965950912 0.38143143965597 
H6    H     0.39222222997487 0.45735507995031 0.28724062969389 
H7    H     0.35907210020029 0.72524343029147 0.40428191985015 
H8    H     0.24671872015719 0.81213360044124 0.42777723969205 
H9    H     0.16482149995725 0.03048262946828 0.42834317015657 
H10   H     0.31407798008827 0.65627949008942 0.26598127975842 
H11   H     0.14361013020800 0.31072520019444 0.39442545971419 
H12   H     0.18853506996209 0.58930471027420 0.32198749017425 
C1    C     0.44206283003904 0.35222550976510 0.39140577015751 
C2    C     0.42182710976132 0.18877828014226 0.37980739031155 
C3    C     0.35658533009105 0.14993462964813 0.37734168964618 
C4    C     0.50333378009784 0.38304654938633 0.39768750990261 
C5    C     0.46621830011044 0.05525806987557 0.38002446010622 
C6    C     0.31286936979695 0.27072518960609 0.36101451033247 
C7    C     0.33294025002810 0.98238833960018 0.39474746993673 
C8    C     0.54850638986189 0.25167568998109 0.39190093005744 
C9    C     0.52967305012910 0.09053410041163 0.38350363987386 
C10   C     0.24219487996438 0.22717319006001 0.38416093032341 
C11   C     0.44404752010959 0.88702832967283 0.38343781014691 
C12   C     0.33713662005040 0.42733383994324 0.31621050011144 
C13   C     0.37835432020364 0.85274514991934 0.39515115005472 
C14   C     0.26337330977363 0.94144378010455 0.41272437026706 
C15   C     0.21842224984290 0.06122381053407 0.41229620020336 
C16   C     0.29336860977301 0.53861807004234 0.30232033018591 
C17   C     0.19774928972770 0.34599388946530 0.37271875021787 
C18   C     0.22238847020333 0.50031125044585 0.33322483984818 
