data_stdin
_audit_creation_method 'critic2'
_audit_creation_date 2023-8-11
_chemical_formula_sum 'C18 H12'
_cell_formula_units_Z 8
_cell_length_a        13.8055653173
_cell_length_b        24.4464637905
_cell_length_c         7.2645416034
_cell_angle_alpha        89.9973
_cell_angle_beta        89.9995
_cell_angle_gamma        89.9999
_cell_volume          2451.762830
_space_group_crystal_system orthorhombic
_space_group_IT_number 61
_space_group_name_H-M_alt 'Pbca'
_space_group_name_Hall '-P 2ac 2ab'
loop_
_symmetry_equiv_pos_site_id
_symmetry_equiv_pos_as_xyz
 1 'x,y,z'
 2 '-x,-y,-z'
 3 '-x,-1/2+y,-1/2-z'
 4 'x,-1/2-y,-1/2+z'
 5 '-1/2-x,-y,-1/2+z'
 6 '-1/2+x,y,-1/2-z'
 7 '-1/2+x,-1/2-y,-z'
 8 '-1/2-x,-1/2+y,z'
loop_
_atom_site_label
_atom_site_type_symbol
_atom_site_fract_x
_atom_site_fract_y
_atom_site_fract_z
H1    H     0.60148938986715 0.11130639986150 0.77083795026384 
H2    H     0.46637014988182 0.16800938991406 0.87333895037169 
H3    H     0.49531270977287 0.24636490018321 0.09041263993582 
H4    H     0.65788139988802 0.25831751998000 0.22859150055397 
H5    H     0.82354170998141 0.22749283015999 0.27484593023714 
H6    H     0.68721780008130 0.13606124016678 0.55151092948904 
H7    H     0.95251613006404 0.15899932010261 0.21358849978585 
H8    H     0.01043803996110 0.07864231019126 0.05438109974374 
H9    H     0.99783760986103 0.01157042986959 0.80044160983571 
H10   H     0.69667362007572 0.08071301009560 0.27064417998430 
H11   H     0.92357858986356 0.98345452020292 0.50946070939418 
H12   H     0.81049018007705 0.00203781012479 0.25076077065982 
C1    C     0.61592897028891 0.14481652000708 0.86484609933221 
C2    C     0.71166850993025 0.15373587007474 0.92944519976092 
C3    C     0.79416368010269 0.12175853004872 0.87005057029745 
C4    C     0.53906559989016 0.17667981993411 0.92398884988591 
C5    C     0.72469948983300 0.19358511987897 0.07217926000744 
C6    C     0.79740576001014 0.09070117999246 0.70061131023861 
C7    C     0.87679472022236 0.12066884990487 0.98618594030216 
C8    C     0.55479493003136 0.21975329014905 0.04944256980637 
C9    C     0.64586051024222 0.22714151004104 0.12441548042512 
C10   C     0.87026432978378 0.04937739998678 0.67952590001237 
C11   C     0.81515678970749 0.19690605006147 0.16676247024801 
C12   C     0.73632437964584 0.10133538982732 0.54750452024483 
C13   C     0.88640566997223 0.15951177000525 0.13182029980144 
C14   C     0.94996541035170 0.08026579984283 0.95807253031549 
C15   C     0.94374602006349 0.04366849998894 0.81624540972713 
C16   C     0.74200988013169 0.07045063981351 0.38835873022963 
C17   C     0.87089468004204 0.01650132004432 0.51903824955568 
C18   C     0.80786834026041 0.02662418986083 0.37544002976129 
