data_stdin
_audit_creation_method 'critic2'
_audit_creation_date 2023-8-11
_chemical_formula_sum 'C18 H12'
_cell_formula_units_Z 8
_cell_length_a        13.6249846425
_cell_length_b        11.4637400601
_cell_length_c        15.3254153061
_cell_angle_alpha        90.0003
_cell_angle_beta        97.1906
_cell_angle_gamma        89.9999
_cell_volume          2374.900999
_space_group_crystal_system monoclinic
_space_group_IT_number 15
_space_group_name_H-M_alt 'C2/c'
_space_group_name_Hall '-C 2yc'
loop_
_symmetry_equiv_pos_site_id
_symmetry_equiv_pos_as_xyz
 1 'x,y,z'
 2 '-1/2-x,-1/2-y,-z'
 3 '-x,y,-1/2-z'
 4 '-1/2+x,-1/2-y,-1/2+z'
 5 '-1/2+x,-1/2+y,z'
 6 '-x,-y,-z'
 7 '-1/2-x,-1/2+y,-1/2-z'
 8 'x,-y,-1/2+z'
loop_
_atom_site_label
_atom_site_type_symbol
_atom_site_fract_x
_atom_site_fract_y
_atom_site_fract_z
H1    H     0.40206925946829 0.84805438333521 0.82940419970494 
H2    H     0.40913995224223 0.66663447084546 0.74757907501973 
H3    H     0.39604777801829 0.47413820959951 0.82172437238421 
H4    H     0.38617041056997 0.46949876810227 0.98272475003377 
H5    H     0.39250031031079 0.56517955017845 0.12159338383833 
H6    H     0.28911711779718 0.93985176894170 0.83789656041502 
H7    H     0.40759370555460 0.74701952175685 0.21094159810172 
H8    H     0.41515710297487 0.95161084649320 0.22373154822603 
H9    H     0.40982375608844 0.15012934587824 0.15872341008064 
H10   H     0.27039502225231 0.13741988329048 0.78034679506667 
H11   H     0.38196465392934 0.27606634181631 0.03396519131222 
H12   H     0.32180179309998 0.30901486396814 0.87583632136420 
C1    C     0.39256165207614 0.76640920031709 0.86296493241449 
C2    C     0.38098475968416 0.76756474421830 0.95374511022064 
C3    C     0.37548382099557 0.87315453072614 0.00523066225024 
C4    C     0.39849815024033 0.66346761342504 0.81679221183279 
C5    C     0.38372508174694 0.65640660099293 0.99710254841953 
C6    C     0.35708831263450 0.98901679261794 0.96846171984325 
C7    C     0.39134371479479 0.86257767766557 0.09830623662207 
C8    C     0.39249349254059 0.55485419780972 0.85870154964138 
C9    C     0.38632045028519 0.55221145137937 0.94785107488101 
C10   C     0.37528446999523 0.08875057940223 0.02479594095684 
C11   C     0.38999439263581 0.65072293613841 0.09047621094988 
C12   C     0.31580145639002 0.01169225128857 0.88043574210090 
C13   C     0.39754388652707 0.75056245866000 0.13928534870821 
C14   C     0.40213644915376 0.96380918794922 0.15279464139313 
C15   C     0.39841576570573 0.07298383747492 0.11722419065671 
C16   C     0.30340751844539 0.12415803779880 0.84800618278259 
C17   C     0.36515743881907 0.20268341595962 0.98946257763046 
C18   C     0.33146634921613 0.22087192182781 0.90188965921525 
