data_stdin
_audit_creation_method 'critic2'
_audit_creation_date 2023-8-11
_chemical_formula_sum 'C18 H12'
_cell_formula_units_Z 8
_cell_length_a        21.3174409779
_cell_length_b         8.7799527064
_cell_length_c        15.2917020675
_cell_angle_alpha        90.0049
_cell_angle_beta        57.8400
_cell_angle_gamma        90.0030
_cell_volume          2422.944160
_space_group_crystal_system monoclinic
_space_group_IT_number 15
_space_group_name_H-M_alt 'C2/c'
_space_group_name_Hall '-C 2yc'
loop_
_symmetry_equiv_pos_site_id
_symmetry_equiv_pos_as_xyz
 1 'x,y,z'
 2 '-1/2-x,-1/2-y,-z'
 3 '-x,y,-1/2-z'
 4 'x,-y,-1/2+z'
 5 '-1/2+x,-1/2+y,z'
 6 '-x,-y,-z'
 7 '-1/2-x,-1/2+y,-1/2-z'
 8 '-1/2+x,-1/2-y,-1/2+z'
loop_
_atom_site_label
_atom_site_type_symbol
_atom_site_fract_x
_atom_site_fract_y
_atom_site_fract_z
H1    H     0.28170013974705 0.06668327964359 0.73941285014934 
H2    H     0.16779453001404 0.91324868034646 0.83136873026532 
H3    H     0.11119265971567 0.80852883005826 0.73764115024133 
H4    H     0.16562164032352 0.87586880023561 0.55253966964007 
H5    H     0.25139818992304 0.02509025054054 0.40203732999899 
H6    H     0.37989007017316 0.95617521045250 0.66562602007796 
H7    H     0.35140025005643 0.21893160945498 0.32032419002557 
H8    H     0.44438012000658 0.37220316982170 0.32121539020885 
H9    H     0.52756430993517 0.42511331043953 0.38519560013634 
H10   H     0.47390791010439 0.98072669975331 0.70842183002101 
H11   H     0.57490112995260 0.35083889032246 0.49261068018404 
H12   H     0.57162410033145 0.18141424956591 0.62588350968540 
C1    C     0.25908283996041 0.01792175972525 0.69659825999992 
C2    C     0.29443113010618 0.04902641947784 0.58947440980814 
C3    C     0.36285631982768 0.13410486956253 0.53118312029084 
C4    C     0.19411727016978 0.93445543036473 0.74889107975780 
C5    C     0.25673640997890 0.00338384046924 0.53922476014386 
C6    C     0.41707035009539 0.14794724011918 0.56026620964062 
C7    C     0.37860867966913 0.20433913004861 0.43808879030928 
C8    C     0.16136358007092 0.87693577024368 0.69628948015912 
C9    C     0.19207072997679 0.91285310055828 0.59333530021216 
C10   C     0.47655642965595 0.25523251960044 0.50710345031723 
C11   C     0.28127918969336 0.05971073960363 0.43843782031500 
C12   C     0.41925930021220 0.04919808999724 0.63191076988944 
C13   C     0.33692440978666 0.16484743004220 0.39290682000265 
C14   C     0.43747310993973 0.31231968967293 0.38809828004859 
C15   C     0.48332400982988 0.34111824007441 0.42329272008857 
C16   C     0.47340188996556 0.06187040000619 0.65511475967835 
C17   C     0.53053727976619 0.26790298958126 0.53390712031003 
C18   C     0.52888393004659 0.17393735966145 0.60755245011545 
