data_stdin
_audit_creation_method 'critic2'
_audit_creation_date 2023-8-11
_chemical_formula_sum 'C18 H12'
_cell_formula_units_Z 8
_cell_length_a        11.0930330581
_cell_length_b        18.8793597801
_cell_length_c        12.5476652245
_cell_angle_alpha        90.0003
_cell_angle_beta        67.5892
_cell_angle_gamma        89.9993
_cell_volume          2429.378743
_space_group_crystal_system monoclinic
_space_group_IT_number 15
_space_group_name_H-M_alt 'C2/c'
_space_group_name_Hall '-C 2yc'
loop_
_symmetry_equiv_pos_site_id
_symmetry_equiv_pos_as_xyz
 1 'x,y,z'
 2 '-x,-y,-z'
 3 '-x,y,-1/2-z'
 4 '-1/2+x,-1/2-y,-1/2+z'
 5 '-1/2+x,-1/2+y,z'
 6 '-1/2-x,-1/2-y,-z'
 7 '-1/2-x,-1/2+y,-1/2-z'
 8 'x,-y,-1/2+z'
loop_
_atom_site_label
_atom_site_type_symbol
_atom_site_fract_x
_atom_site_fract_y
_atom_site_fract_z
H1    H     0.02557775037990 0.08708741979334 0.83394631988264 
H2    H     0.23685003949506 0.11098953980867 0.84068684034002 
H3    H     0.25483339978416 0.18084202012136 0.00488837983858 
H4    H     0.05532149995512 0.23140170983924 0.15240461025040 
H5    H     0.82316923009921 0.25572611022987 0.22526132012714 
H6    H     0.92344598041466 0.00244895980927 0.89744714991580 
H7    H     0.61291850015456 0.24729375991117 0.20213955036826 
H8    H     0.47620757014267 0.19899988016320 0.11226908982210 
H9    H     0.43900324947031 0.11851811994389 0.97220923029094 
H10   H     0.87435021033784 0.91890472980206 0.77111946008858 
H11   H     0.50919941959122 0.02333237008412 0.83645354004133 
H12   H     0.67140459969120 0.93092842994872 0.73187432994799 
C1    C     0.02870302988117 0.11545172006227 0.90795315018399 
C2    C     0.91120346022261 0.13864521001639 0.99618618982398 
C3    C     0.78227588012851 0.12406925002496 0.99715633013629 
C4    C     0.14982016056938 0.13024309011246 0.91045648970299 
C5    C     0.92364127995474 0.18405062015802 0.08325589029994 
C6    C     0.75412605982089 0.06958255979777 0.92839128957731 
C7    C     0.67735382959012 0.16724151984548 0.06817773021348 
C8    C     0.15998849013265 0.16989112004873 0.00162897961338 
C9    C     0.04842286026967 0.19718133988516 0.08507518989478 
C10   C     0.63083320018425 0.07100729015318 0.91567657029673 
C11   C     0.81198296011295 0.22010902018717 0.16133790010926 
C12   C     0.83739463953860 0.01136953010288 0.87790508014727 
C13   C     0.69511238049920 0.21478883999587 0.14947173966633 
C14   C     0.55349200001325 0.16407104977978 0.05845461005482 
C15   C     0.53285665976738 0.11986759003612 0.98115578041656 
C16   C     0.80849727972076 0.96303057006883 0.80806522034527 
C17   C     0.60411796025300 0.02117321011261 0.84337931979637 
C18   C     0.69292573964523 0.96905759013303 0.78718630035915 
