data_stdin
_audit_creation_method 'critic2'
_audit_creation_date 2023-8-11
_chemical_formula_sum 'C18 H12'
_cell_formula_units_Z 4
_cell_length_a        16.2805847304
_cell_length_b         3.9351643830
_cell_length_c        18.3583047201
_cell_angle_alpha        90.0012
_cell_angle_beta        90.0006
_cell_angle_gamma        90.0021
_cell_volume          1176.157417
_space_group_crystal_system orthorhombic
_space_group_IT_number 19
_space_group_name_H-M_alt 'P2_12_12_1'
_space_group_name_Hall 'P 2ac 2ab'
loop_
_symmetry_equiv_pos_site_id
_symmetry_equiv_pos_as_xyz
 1 'x,y,z'
 2 '-1/2-x,-y,-1/2+z'
 3 '-x,-1/2+y,-1/2-z'
 4 '-1/2+x,-1/2-y,-z'
loop_
_atom_site_label
_atom_site_type_symbol
_atom_site_fract_x
_atom_site_fract_y
_atom_site_fract_z
H1    H     0.89887029014833 0.81220749122025 0.27405490013219 
H2    H     0.04607733998866 0.78653581885060 0.29277181982475 
H3    H     0.10560151025852 0.81387240046354 0.41867690972894 
H4    H     0.01221577025212 0.91007777974658 0.52352543021768 
H5    H     0.87839115019324 0.04066916102293 0.57166626018390 
H6    H     0.82861929010407 0.42598460892601 0.26930402023796 
H7    H     0.73068019012364 0.15411741918306 0.55219967023240 
H8    H     0.61249571019524 0.16713552081794 0.47689482985230 
H9    H     0.54143653979937 0.05570028955929 0.36002510026827 
H10   H     0.75232789994885 0.27403156912951 0.15948786980371 
H11   H     0.54036644999273 0.80368978041032 0.24073894985123 
H12   H     0.60859846005958 0.47178592983246 0.14199178003456 
C1    C     0.92186742004927 0.81581321115942 0.32950084017952 
C2    C     0.86607458005750 0.84643497991696 0.38849305016989 
C3    C     0.77736621999546 0.85291978927811 0.38071888011276 
C4    C     0.00597484975498 0.80657341047959 0.33998823978410 
C5    C     0.90140844014496 0.90031424990548 0.45916191991670 
C6    C     0.73312272982656 0.73958555980138 0.31661094993832 
C7    C     0.73072396987208 0.98564129118496 0.43967126998983 
C8    C     0.03940727002215 0.82736926908686 0.41046668997348 
C9    C     0.98742081974327 0.87875541104497 0.46879966989903 
C10   C     0.64775429011675 0.82331614120788 0.30913901989764 
C11   C     0.85036808012833 0.99673653055441 0.51864751006202 
C12   C     0.76779960026033 0.53183711955028 0.26139308021157 
C13   C     0.76865633021722 0.05494476028061 0.50813610990570 
C14   C     0.64535105029976 0.05497939073560 0.43118182977700 
C15   C     0.60598226988234 0.99036352002094 0.36705228025278 
C16   C     0.72424847010130 0.44050615112509 0.19977902018428 
C17   C     0.60466916994575 0.72964113889441 0.24528822976025 
C18   C     0.64233049993038 0.54616167037959 0.19064681026460 
