data_stdin
_audit_creation_method 'critic2'
_audit_creation_date 2023-8-11
_chemical_formula_sum 'C18 H12'
_cell_formula_units_Z 4
_cell_length_a        11.1246781672
_cell_length_b        13.9159240700
_cell_length_c         8.1810212099
_cell_angle_alpha        90.0000
_cell_angle_beta        70.2693
_cell_angle_gamma        90.0000
_cell_volume          1192.148439
_space_group_crystal_system monoclinic
_space_group_IT_number 14
_space_group_name_H-M_alt 'P2_1/c'
_space_group_name_Hall '-P 2ybc'
loop_
_symmetry_equiv_pos_site_id
_symmetry_equiv_pos_as_xyz
 1 'x,y,z'
 2 '-x,-y,-z'
 3 '-x,-1/2+y,-1/2-z'
 4 'x,-1/2-y,-1/2+z'
loop_
_atom_site_label
_atom_site_type_symbol
_atom_site_fract_x
_atom_site_fract_y
_atom_site_fract_z
H1    H     0.85910976012304 0.96265162017793 0.98026079997949 
H2    H     0.68761299001152 0.98325598969824 0.25722698981237 
H3    H     0.46601571025104 0.93021151992259 0.29518772022932 
H4    H     0.41777050990688 0.86317318995101 0.04155423952499 
H5    H     0.48258153006349 0.82257054966941 0.73817441962986 
H6    H     0.96475303014519 0.84358010966681 0.92100127016674 
H7    H     0.64736559961519 0.82564398028651 0.44433202974720 
H8    H     0.85954361021687 0.85597875974020 0.25630603973905 
H9    H     0.08967794013933 0.88363794023066 0.20770987039159 
H10   H     0.19435375024279 0.83780816964634 0.86339091935767 
H11   H     0.26351514007844 0.88359903990353 0.31874727962114 
H12   H     0.34788325031938 0.86170066990505 0.56212011946610 
C1    C     0.76472256023855 0.93536346970758 0.99390626026920 
C2    C     0.74268817975758 0.89204362018521 0.84957485025736 
C3    C     0.84156344987358 0.87661457968798 0.68300425014069 
C4    C     0.66711859021799 0.94835524009624 0.15057008961742 
C5    C     0.61268183985328 0.86970854978539 0.86853580958532 
C6    C     0.97726673972481 0.87465091021505 0.65581586949660 
C7    C     0.80273144031216 0.86159078993601 0.53645588949314 
C8    C     0.54191276019082 0.91864291002288 0.17173720031962 
C9    C     0.51541989968467 0.88113036996666 0.03157096047655 
C10   C     0.06596813950961 0.87965382011146 0.48178760046486 
C11   C     0.58125857973835 0.84141244986330 0.72046579062055 
C12   C     0.02865654974940 0.85855770978914 0.79041529943490 
C13   C     0.67204583015509 0.84236219965659 0.55907038037919 
C14   C     0.89391314980207 0.86493189985523 0.36516508943526 
C15   C     0.02045638962452 0.87906005981367 0.33857765004427 
C16   C     0.15889963007888 0.85358717973782 0.75741549046293 
C17   C     0.19879288028974 0.87761830002739 0.45213574979922 
C18   C     0.24533114012329 0.86521738032529 0.58725676964295 
