data_stdin
_audit_creation_method 'critic2'
_audit_creation_date 2023-8-11
_chemical_formula_sum 'C18 H12'
_cell_formula_units_Z 2
_cell_length_a         8.9374364513
_cell_length_b        13.7510392915
_cell_length_c         4.8432250145
_cell_angle_alpha        89.9972
_cell_angle_beta        83.5648
_cell_angle_gamma        89.9990
_cell_volume           591.477294
_space_group_crystal_system monoclinic
_space_group_IT_number 4
_space_group_name_H-M_alt 'P2_1'
_space_group_name_Hall 'P 2yb'
loop_
_symmetry_equiv_pos_site_id
_symmetry_equiv_pos_as_xyz
 1 'x,y,z'
 2 '-x,-1/2+y,-z'
loop_
_atom_site_label
_atom_site_type_symbol
_atom_site_fract_x
_atom_site_fract_y
_atom_site_fract_z
H1    H     0.97442122007331 0.99522789001208 0.41434726908627 
H2    H     0.77347799029713 0.99318423974832 0.11303459024029 
H3    H     0.72879037014650 0.13709362990359 0.81706909078447 
H4    H     0.87196221008414 0.28955107984950 0.87656168996888 
H5    H     0.04605978948703 0.38240143027571 0.11279816027164 
H6    H     0.17327902053298 0.95197988975535 0.28749403950943 
H7    H     0.23736773978951 0.39178842968769 0.44607399042021 
H8    H     0.38359220996331 0.31928319013099 0.76776975052011 
H9    H     0.47949274953564 0.17443993023978 0.99889395006726 
H10   H     0.29859634045087 0.81252019001903 0.47282028962171 
H11   H     0.51176119033387 0.00133319970155 0.01821517100981 
H12   H     0.46622342049017 0.83453216014158 0.84516439032534 
C1    C     0.95973863956491 0.05826214008000 0.28559648027818 
C2    C     0.05390380949248 0.14064957991133 0.30251143993379 
C3    C     0.18136635019648 0.14393609014816 0.46343796050023 
C4    C     0.84378877961136 0.05772134004170 0.11866671965975 
C5    C     0.01169109020460 0.22714599989860 0.16508432026978 
C6    C     0.25601333955463 0.05897543977315 0.56201648929765 
C7    C     0.23843146963249 0.23690019964212 0.52586167930420 
C8    C     0.81534433986877 0.13962163017098 0.95810292909253 
C9    C     0.89637698003378 0.22362809035761 0.98767237006110 
C10   C     0.36286103973710 0.07151548008284 0.75967969963170 
C11   C     0.08196070990107 0.31736394027587 0.21547361992810 
C12   C     0.23948539960139 0.96342894982311 0.45888910072697 
C13   C     0.18692929997941 0.32240509990843 0.39914286094677 
C14   C     0.34724908983614 0.24636324026036 0.71830920939510 
C15   C     0.40189142010259 0.16682630030424 0.84218336094520 
C16   C     0.31349898027216 0.88463697031197 0.55830978975576 
C17   C     0.43494031042117 0.98952776973930 0.86193726959549 
C18   C     0.40970686020295 0.89704808966195 0.76617526076019 
