data_stdin
_audit_creation_method 'critic2'
_audit_creation_date 2023-8-11
_chemical_formula_sum 'C18 H12'
_cell_formula_units_Z 2
_cell_length_a        19.0119690632
_cell_length_b         8.1580740034
_cell_length_c         3.8774105315
_cell_angle_alpha        90.0061
_cell_angle_beta       103.6069
_cell_angle_gamma        90.0017
_cell_volume           584.510964
_space_group_crystal_system monoclinic
_space_group_IT_number 4
_space_group_name_H-M_alt 'P2_1'
_space_group_name_Hall 'P 2yb'
loop_
_symmetry_equiv_pos_site_id
_symmetry_equiv_pos_as_xyz
 1 'x,y,z'
 2 '-x,-1/2+y,-z'
loop_
_atom_site_label
_atom_site_type_symbol
_atom_site_fract_x
_atom_site_fract_y
_atom_site_fract_z
H1    H     0.19330940011167 0.98414420016611 0.81426127896733 
H2    H     0.06952246980697 0.93094510974762 0.85179065949825 
H3    H     0.98122535015643 0.16064362045554 0.81570295975158 
H4    H     0.02334808993439 0.44692328943733 0.77538068033282 
H5    H     0.11706798985996 0.64207449044732 0.77364169875165 
H6    H     0.23239628997771 0.97654621959719 0.41953205901904 
H7    H     0.24683920977935 0.70458135946104 0.82201601987235 
H8    H     0.36792260979087 0.62196228994334 0.88190680942842 
H9    H     0.46031978992610 0.41088294037982 0.85707949882448 
H10   H     0.32377720020427 0.78199338951722 0.33432441973758 
H11   H     0.49073577977036 0.13627024015446 0.72204846916523 
H12   H     0.45520394970500 0.85527973054401 0.50490133871011 
C1    C     0.15619659972533 0.08656965006675 0.78722655965475 
C2    C     0.18162175983092 0.24739790023768 0.74687266920854 
C3    C     0.25508349992085 0.28596683942534 0.72544611073919 
C4    C     0.08618326992112 0.05618028952728 0.81479861100549 
C5    C     0.13194810989269 0.37876708037850 0.75806197924281 
C6    C     0.30727173995986 0.16790446035523 0.65619453903132 
C7    C     0.27806307012958 0.45168981022682 0.78181115088376 
C8    C     0.03665733973422 0.18557353953144 0.79984691971806 
C9    C     0.05994278009478 0.34426950987929 0.77558803017669 
C10   C     0.38202238002128 0.21420862047940 0.71635478008489 
C11   C     0.15602171974449 0.54443382043806 0.77008904995844 
C12   C     0.28886236996080 0.01031292982328 0.50812079961508 
C13   C     0.22721971996514 0.57871381938935 0.79544257041789 
C14   C     0.35250060019921 0.49423016060042 0.82791517049104 
C15   C     0.40330395985031 0.37849411939594 0.81130933068182 
C16   C     0.34061692014956 0.90098501938774 0.45178663109304 
C17   C     0.43417258023043 0.09859503997845 0.66613645987708 
C18   C     0.41440625990724 0.94287142028613 0.54171056046334 
