data_stdin
_audit_creation_method 'critic2'
_audit_creation_date 2023-8-11
_chemical_formula_sum 'C18 H12'
_cell_formula_units_Z 8
_cell_length_a        31.3041954635
_cell_length_b         3.8623726017
_cell_length_c        20.2773165352
_cell_angle_alpha        90.0027
_cell_angle_beta        70.3238
_cell_angle_gamma        90.0497
_cell_volume          2308.544694
_space_group_crystal_system triclinic
_space_group_IT_number 2
_space_group_name_H-M_alt 'P-1'
_space_group_name_Hall '-P 1'
loop_
_symmetry_equiv_pos_site_id
_symmetry_equiv_pos_as_xyz
 1 'x,y,z'
 2 '-x,-y,-z'
 3 '-1/2+x,-1/2+y,z'
 4 '-1/2-x,-1/2-y,-z'
loop_
_atom_site_label
_atom_site_type_symbol
_atom_site_fract_x
_atom_site_fract_y
_atom_site_fract_z
H1    H     0.44887064001305 0.46005027016048 0.53296052022826 
H2    H     0.55114058986549 0.46036354023868 0.96709912004917 
H3    H     0.51040138010177 0.37258660084126 0.57927081000955 
H4    H     0.48957787996598 0.37341580024759 0.92080841019450 
H5    H     0.49722011990757 0.05661437072490 0.69142956003766 
H6    H     0.50264136015446 0.05756337982693 0.80868903975176 
H7    H     0.41923254988375 0.85184426998553 0.75889234995221 
H8    H     0.58055914983507 0.85231368006266 0.74123259021928 
H9    H     0.33989625989787 0.80302033033243 0.77461859019588 
H10   H     0.65987957995683 0.80299615056834 0.72548989007632 
H11   H     0.43599247992590 0.15844300981415 0.46570816019672 
H12   H     0.56393502014403 0.15875810003789 0.03438920991898 
H13   H     0.27487944985245 0.94036118034943 0.73511341015700 
H14   H     0.72495059987990 0.93969022930457 0.76498302014209 
H15   H     0.24420795980434 0.18420290035226 0.65360229022493 
H16   H     0.75571479019167 0.18324089020237 0.84643103977819 
H17   H     0.25311724997398 0.46912815918592 0.54036892009785 
H18   H     0.74691635993533 0.46846525956882 0.95959752977072 
H19   H     0.44240895998963 0.38183481916550 0.35036027978834 
H20   H     0.55760835003170 0.38245955917089 0.14968001991462 
H21   H     0.30060448998626 0.63823449009542 0.42409353977078 
H22   H     0.69949851005907 0.63797587985828 0.07583985986641 
H23   H     0.37543460984531 0.64842331989369 0.32896908012836 
H24   H     0.62468019006203 0.64877515069382 0.17098153002248 
C1    C     0.44247333993709 0.30416632999015 0.57972462987960 
C2    C     0.55748578983689 0.30451351043180 0.92035093022064 
C3    C     0.39829915004408 0.17104775002561 0.61414141025624 
C4    C     0.60161472010261 0.17116268003291 0.88593774011414 
C5    C     0.36093561008551 0.20636145011924 0.58751432013346 
C6    C     0.63899486985113 0.20619251031207 0.91255010002061 
C7    C     0.47718982998304 0.26232071921369 0.60677141998778 
C8    C     0.52275135991769 0.26295229112879 0.89331788981428 
C9    C     0.39015555001826 0.01776778084012 0.68180455990955 
C10   C     0.60970080005232 0.01794969036382 0.81828940013566 
C11   C     0.36577002009678 0.30857240125902 0.51647277975687 
C12   C     0.63420375987597 0.30847612077063 0.98356930987033 
C13   C     0.31641278991401 0.14363145031316 0.63458254995333 
C14   C     0.68349338003755 0.14316970043604 0.86548460014071 
C15   C     0.46953970995147 0.08967962056112 0.67078650016967 
C16   C     0.53033791994677 0.09039858910802 0.82931658004464 
C17   C     0.42639020997377 0.97510926065814 0.70803716978648 
C18   C     0.57344673987353 0.97558099905906 0.79207076014564 
C19   C     0.32641447012344 0.42097582073547 0.50126602013534 
C20   C     0.67360305987779 0.42073046993275 0.99873286987552 
C21   C     0.34520463988095 0.92366405961874 0.72388675009604 
C22   C     0.65461735010389 0.92355978884932 0.77621050980304 
C23   C     0.40683307004201 0.28547037046837 0.45897023024375 
C24   C     0.59313941999622 0.28567503087501 0.04108801984811 
C25   C     0.30954516998667 0.99642734083209 0.70185943983911 
C26   C     0.69030392002319 0.99598009000544 0.79822833018439 
C27   C     0.27782633005743 0.23323823044300 0.61579889981189 
C28   C     0.72211645009253 0.23256714884773 0.88423515012465 
C29   C     0.28265062983721 0.38674710057764 0.55311657002421 
C30   C     0.71735242998699 0.38618178953980 0.94688062988624 
C31   C     0.41015017990383 0.40379796107194 0.39301925009934 
C32   C     0.58986984010784 0.40416543113721 0.10700662974557 
C33   C     0.33088916008226 0.54689417125062 0.43372040995866 
C34   C     0.66917747002806 0.54680585911036 0.06624443021734 
C35   C     0.37230948005783 0.54734619912091 0.38049434017325 
C36   C     0.62776379016038 0.54757419031495 0.11948223974144 
