data_stdin
_audit_creation_method 'critic2'
_audit_creation_date 2023-8-11
_chemical_formula_sum 'C18 H12'
_cell_formula_units_Z 4
_cell_length_a        13.0398831351
_cell_length_b         5.1690150715
_cell_length_c        17.9332965239
_cell_angle_alpha        90.0010
_cell_angle_beta        93.2158
_cell_angle_gamma        89.9998
_cell_volume          1206.860922
_space_group_crystal_system monoclinic
_space_group_IT_number 14
_space_group_name_H-M_alt 'P2_1/c'
_space_group_name_Hall '-P 2ybc'
loop_
_symmetry_equiv_pos_site_id
_symmetry_equiv_pos_as_xyz
 1 'x,y,z'
 2 '-x,-y,-z'
 3 '-x,-1/2+y,-1/2-z'
 4 'x,-1/2-y,-1/2+z'
loop_
_atom_site_label
_atom_site_type_symbol
_atom_site_fract_x
_atom_site_fract_y
_atom_site_fract_z
H1    H     0.56850500979616 0.83673402037850 0.43690204990413 
H2    H     0.40657989968282 0.60421317996816 0.43094764987271 
H3    H     0.38508491036255 0.19823219944602 0.35414896989760 
H4    H     0.52831470993780 0.05049272064245 0.28004834992746 
H5    H     0.69546390990173 0.11205321036565 0.23327548993166 
H6    H     0.67560817998624 0.77456281087504 0.51317855981948 
H7    H     0.85372254025047 0.37564592994225 0.22587538026748 
H8    H     0.96231403012359 0.72278689031283 0.26761683006424 
H9    H     0.00510857002658 0.08823632932466 0.35396029025431 
H10   H     0.73222879001004 0.10499257967646 0.60357019973689 
H11   H     0.97053382016536 0.33851924095866 0.46175368999529 
H12   H     0.87487786967617 0.40770746913801 0.57641756976714 
C1    C     0.56354283966962 0.65643365960964 0.40604641012429 
C2    C     0.64957496980940 0.56736423949830 0.36835174982832 
C3    C     0.74925532026254 0.69303876076403 0.37257864988451 
C4    C     0.47042082965361 0.52721023912169 0.40121178014576 
C5    C     0.63295399016295 0.35033106925640 0.31921032017801 
C6    C     0.78287970977154 0.87733048933379 0.42988846021645 
C7    C     0.81870007037401 0.63092720060879 0.31691945027735 
C8    C     0.45802946007105 0.30137591945720 0.35787537005699 
C9    C     0.53805350967457 0.21725926922569 0.31674644010142 
C10   C     0.87317087018985 0.02876622968887 0.41984304977634 
C11   C     0.70970836033798 0.27855718087050 0.26959428004213 
C12   C     0.73619081979960 0.90628782984346 0.49897618023144 
C13   C     0.79709387961259 0.42244574934318 0.26622513022919 
C14   C     0.91162052972246 0.77414196999015 0.31161133972982 
C15   C     0.93558507037385 0.97418638995892 0.35912547983098 
C16   C     0.76912717012181 0.09143703070312 0.55070996012999 
C17   C     0.90324214986153 0.22233866033178 0.47232005021021 
C18   C     0.85096454993078 0.25838566096621 0.53628872992986 
