data_stdin
_audit_creation_method 'critic2'
_audit_creation_date 2023-8-11
_chemical_formula_sum 'C18 H12'
_cell_formula_units_Z 4
_cell_length_a        12.4012522832
_cell_length_b        10.6427864605
_cell_length_c         9.1893171210
_cell_angle_alpha        90.0008
_cell_angle_beta        84.8931
_cell_angle_gamma        89.9992
_cell_volume          1208.027238
_space_group_crystal_system monoclinic
_space_group_IT_number 14
_space_group_name_H-M_alt 'P2_1/c'
_space_group_name_Hall '-P 2ybc'
loop_
_symmetry_equiv_pos_site_id
_symmetry_equiv_pos_as_xyz
 1 'x,y,z'
 2 '-x,-y,-z'
 3 '-x,-1/2+y,-1/2-z'
 4 'x,-1/2-y,-1/2+z'
loop_
_atom_site_label
_atom_site_type_symbol
_atom_site_fract_x
_atom_site_fract_y
_atom_site_fract_z
H1    H     0.06369015004825 0.92019148046392 0.52058322980127 
H2    H     0.92369557006309 0.82698353046839 0.69034416974613 
H3    H     0.93303586977826 0.60031673035580 0.75955562031142 
H4    H     0.07524156021478 0.46551152953485 0.63296048017041 
H5    H     0.22512228005012 0.43650635005602 0.45224710992725 
H6    H     0.19474392002466 0.99267337042338 0.58896747999240 
H7    H     0.35466963961037 0.52297245975487 0.25460112995455 
H8    H     0.43124926003539 0.69458061038347 0.11589812050185 
H9    H     0.45765386989141 0.92292156981504 0.07496168033097 
H10   H     0.24019131028811 0.21534973976725 0.56220811950604 
H11   H     0.42850729980539 0.13804175033246 0.15649159978067 
H12   H     0.35291660036309 0.29188234979530 0.33958784022531 
C1    C     0.07155551015527 0.82245384032314 0.55149627050531 
C2    C     0.15966448995631 0.75060371957683 0.48722391980534 
C3    C     0.24752131013279 0.80195600037150 0.39072693012154 
C4    C     0.99154929980277 0.76945386016702 0.64672799952040 
C5    C     0.15597396984366 0.61776120004500 0.51304122980005 
C6    C     0.27528256962540 0.93429944975516 0.38121779042816 
C7    C     0.31153965978398 0.71696465013023 0.30052070948851 
C8    C     0.99532430004940 0.64121794015866 0.68308545985667 
C9    C     0.07535310029300 0.56650812010626 0.61446982027104 
C10   C     0.34963963028422 0.97732757966033 0.26305151047642 
C11   C     0.23007742033640 0.53708854986645 0.43090267046332 
C12   C     0.24011137017102 0.02411867036521 0.48930192981377 
C13   C     0.30166392006253 0.58468199009849 0.32332214965626 
C14   C     0.38718399988287 0.76275325955964 0.18670981028743 
C15   C     0.40254111984433 0.88852764988439 0.16501033020395 
C16   C     0.26753868002558 0.14990560002978 0.47546968024526 
C17   C     0.37348153020359 0.10699389963833 0.24860022013585 
C18   C     0.33199973010419 0.19285482974399 0.35163439981643 
