data_stdin
_audit_creation_method 'critic2'
_audit_creation_date 2023-8-11
_chemical_formula_sum 'C18 H12'
_cell_formula_units_Z 4
_cell_length_a        29.1169816564
_cell_length_b        10.3482188975
_cell_length_c         3.8620564959
_cell_angle_alpha        90.0003
_cell_angle_beta        90.0119
_cell_angle_gamma        90.0096
_cell_volume          1163.671952
_space_group_crystal_system monoclinic
_space_group_IT_number 4
_space_group_name_H-M_alt 'P2_1'
_space_group_name_Hall 'P 2yb'
loop_
_symmetry_equiv_pos_site_id
_symmetry_equiv_pos_as_xyz
 1 'x,y,z'
 2 '-x,-y,-1/2+z'
loop_
_atom_site_label
_atom_site_type_symbol
_atom_site_fract_x
_atom_site_fract_y
_atom_site_fract_z
H1    H     0.20309213986136 0.26545990020416 0.96458468048293 
H2    H     0.29692006988991 0.76537217019027 0.46458112023233 
H3    H     0.26449295995568 0.12169230039988 0.76415590098665 
H4    H     0.23550042986773 0.62154315984020 0.26442163883055 
H5    H     0.24548831004071 0.91250990020540 0.47823350098313 
H6    H     0.25447249998438 0.41237582010362 0.97854199102876 
H7    H     0.16409143983735 0.84232682028268 0.44214698994216 
H8    H     0.33586339995066 0.34224710992940 0.94223533096007 
H9    H     0.08345445988273 0.87529113954490 0.57550085944666 
H10   H     0.41651471986063 0.37527635974043 0.07536942027627 
H11   H     0.17768761000209 0.39554136962895 0.63793165057388 
H12   H     0.32230736996753 0.89547113004972 0.13786188110004 
H13   H     0.02257820012506 0.00670138973777 0.85648356992461 
H14   H     0.47742517012040 0.50674564030020 0.35609559964949 
H15   H     0.99682558005922 0.20045593994309 0.13115613015178 
H16   H     0.50319662998462 0.70050425034567 0.63092794112832 
H17   H     0.00805499999266 0.42965518036191 0.29003130894886 
H18   H     0.49198090985989 0.92968545985600 0.78987924880329 
H19   H     0.18274602011184 0.62822605957268 0.72624934120283 
H20   H     0.31725621002968 0.12815027988132 0.22628497998517 
H21   H     0.05199070989383 0.62634736006092 0.24439774002766 
H22   H     0.44804058012569 0.12634089956658 0.74442742129125 
H23   H     0.12065270990515 0.74690983012839 0.03819732942450 
H24   H     0.37936315991107 0.24686119958227 0.53834841126864 
C1    C     0.19406777016428 0.17735140031666 0.82851817919164 
C2    C     0.30593394005129 0.67728141036642 0.32852783884398 
C3    C     0.14708367991307 0.14576301008353 0.78407872124817 
C4    C     0.35291224005739 0.64571524997912 0.28400249946408 
C5    C     0.10966513002225 0.23094628988320 0.87971815014637 
C6    C     0.39034228013187 0.73092119006222 0.37956721935536 
C7    C     0.22873171985660 0.09484156005783 0.72376353004925 
C8    C     0.27125824009954 0.59473014025795 0.22392955026859 
C9    C     0.13682895991335 0.01834227010718 0.66001767078548 
C10   C     0.36315196012973 0.51829181999450 0.15997640009537 
C11   C     0.11398550992160 0.36962003032589 0.92157386902204 
C12   C     0.38602700010288 0.86958905983998 0.42146837016675 
C13   C     0.06568511991225 0.17480028997343 0.92913222890659 
C14   C     0.43432539987872 0.67480588031733 0.42890462115378 
C15   C     0.21812469005265 0.97538775031011 0.56948679995474 
C16   C     0.28184711004153 0.47527510995644 0.06968378088942 
C17   C     0.17283108997895 0.93715313029377 0.54525515984905 
C18   C     0.32713716011493 0.43707267957652 0.04533563873164 
C19   C     0.07684810990995 0.44039542009417 0.07561496112934 
C20   C     0.42317430002550 0.94038467022138 0.57552204098911 
C21   C     0.09074558015736 0.97195561993837 0.67300194977610 
C22   C     0.40923534993214 0.47194081025903 0.17285112902111 
C23   C     0.15143630982932 0.44283789985630 0.79185174963130 
C24   C     0.34856847004221 0.94278192009791 0.29179060103917 
C25   C     0.05716426993180 0.04492099952010 0.82325250036246 
C26   C     0.44283512007683 0.54493669015375 0.32298329051121 
C27   C     0.02945345013906 0.24837866045192 0.08022250983895 
C28   C     0.47056753003876 0.74840464963854 0.58000467047270 
C29   C     0.03542182983564 0.37521737958491 0.16534710061116 
C30   C     0.46460531997679 0.87523296038702 0.66519211020143 
C31   C     0.15378291005092 0.57535309990400 0.83447478083762 
C32   C     0.34622442016654 0.07529165027005 0.33448283880917 
C33   C     0.08042224999460 0.57574265039086 0.12074644907484 
C34   C     0.41960148006364 0.07572574994382 0.62074774116765 
C35   C     0.11851794000831 0.64257861041059 0.00639531971906 
C36   C     0.38149789000279 0.14253452000454 0.50645230943961 
