data_stdin
_audit_creation_method 'critic2'
_audit_creation_date 2023-8-11
_chemical_formula_sum 'C18 H12'
_cell_formula_units_Z 4
_cell_length_a        15.6587452303
_cell_length_b         4.9415764926
_cell_length_c        15.3648030811
_cell_angle_alpha        90.0012
_cell_angle_beta        90.0002
_cell_angle_gamma        89.9999
_cell_volume          1188.911366
_space_group_crystal_system orthorhombic
_space_group_IT_number 33
_space_group_name_H-M_alt 'Pna2_1'
_space_group_name_Hall 'P 2c -2n'
loop_
_symmetry_equiv_pos_site_id
_symmetry_equiv_pos_as_xyz
 1 'x,y,z'
 2 '-x,-y,-1/2+z'
 3 '-1/2-x,-1/2+y,-1/2+z'
 4 '-1/2+x,-1/2-y,z'
loop_
_atom_site_label
_atom_site_type_symbol
_atom_site_fract_x
_atom_site_fract_y
_atom_site_fract_z
H1    H     0.17439853006813 0.28616264978041 0.99087257002264 
H2    H     0.21291915969335 0.63143315075504 0.88399016007144 
H3    H     0.10067942988261 0.93979855033873 0.82241816967877 
H4    H     0.94951319993517 0.86821199098481 0.86298764007761 
H5    H     0.83992743018746 0.60348057011731 0.93562514969832 
H6    H     0.17826447024457 0.37415104935945 0.11479902005098 
H7    H     0.79955397983339 0.22067945941356 0.03138920971785 
H8    H     0.83429424976367 0.86458436947638 0.12940815005119 
H9    H     0.93889509012549 0.61403196908064 0.22006274003527 
H10   H     0.27548484031537 0.15119821075965 0.21596760970617 
H11   H     0.07945510009568 0.57447596008951 0.28046278999140 
H12   H     0.22858581004232 0.73880515999343 0.29806743997288 
C1    C     0.12565097988826 0.42495988075696 0.96814940006381 
C2    C     0.04080737024181 0.39412064930662 0.99873906009491 
C3    C     0.01613514014137 0.20597759935489 0.06667432995586 
C4    C     0.14697128972197 0.61612826063083 0.90603188018834 
C5    C     0.97612797013954 0.54713304960053 0.95467468985252 
C6    C     0.07474319991770 0.08687033047279 0.12894150022592 
C7    C     0.92849241005158 0.13488256927992 0.07298933005567 
C8    C     0.08393871022417 0.78573108973077 0.87005077968703 
C9    C     0.99957743017758 0.74688152018069 0.89311629982680 
C10   C     0.04595066017545 0.86728634980054 0.18260429014772 
C11   C     0.88845164005727 0.48618736994400 0.96974431007831 
C12   C     0.15793758994840 0.18772558933212 0.14568196010989 
C13   C     0.86618204029729 0.27703119952904 0.02314738027823 
C14   C     0.90159591979714 0.92091648946988 0.12914718029883 
C15   C     0.95888506011396 0.78330696024033 0.17942132984395 
C16   C     0.21222374001395 0.06572704978686 0.20504941990764 
C17   C     0.10292284024583 0.74329159019575 0.24186994030153 
C18   C     0.18548065989719 0.83677219957126 0.25217993980148 
