data_stdin
_audit_creation_method 'critic2'
_audit_creation_date 2023-8-11
_chemical_formula_sum 'C18 H12'
_cell_formula_units_Z 8
_cell_length_a        29.9558390723
_cell_length_b         4.0091955219
_cell_length_c        20.5964918050
_cell_angle_alpha        89.9847
_cell_angle_beta        67.3463
_cell_angle_gamma        89.9903
_cell_volume          2282.773184
_space_group_crystal_system monoclinic
_space_group_IT_number 15
_space_group_name_H-M_alt 'C2/c'
_space_group_name_Hall '-C 2yc'
loop_
_symmetry_equiv_pos_site_id
_symmetry_equiv_pos_as_xyz
 1 'x,y,z'
 2 '-1/2-x,-1/2-y,-z'
 3 '-x,y,-1/2-z'
 4 'x,-y,-1/2+z'
 5 '-1/2+x,-1/2+y,z'
 6 '-x,-y,-z'
 7 '-1/2-x,-1/2+y,-1/2-z'
 8 '-1/2+x,-1/2-y,-1/2+z'
loop_
_atom_site_label
_atom_site_type_symbol
_atom_site_fract_x
_atom_site_fract_y
_atom_site_fract_z
H1    H     0.06474014834007 0.70301141121605 0.72467051669207 
H2    H     0.99365844001413 0.49122978106647 0.82047906233137 
H3    H     0.98045243966195 0.61325927417344 0.94540428646679 
H4    H     0.04385290388797 0.92107748098509 0.97077485364391 
H5    H     0.12051869269940 0.19571490084472 0.93336716830989 
H6    H     0.87944015179607 0.19530578492874 0.56663263570547 
H7    H     0.06416916361679 0.08221262975818 0.67730878187091 
H8    H     0.19566628981885 0.39522440223308 0.83780381934529 
H9    H     0.80429716302668 0.39484073196603 0.66218037028428 
H10   H     0.24368789217004 0.48320727650778 0.71853656888903 
H11   H     0.25475326179553 0.51044594368604 0.59316319393060 
H12   H     0.07450250865949 0.16644259196932 0.55660451647414 
H13   H     0.22168360717617 0.47631951624478 0.50468523091535 
H14   H     0.15437033672034 0.34999829918955 0.46623988933962 
C1    C     0.05889015706023 0.77700130930979 0.77788014563603 
C2    C     0.09377099846388 0.97915729332010 0.79003581415205 
C3    C     0.13445353017902 0.13847901973508 0.73506338087663 
C4    C     0.01896423975729 0.65040358929183 0.83230033643807 
C5    C     0.08851773827535 0.01407775608495 0.86195340787451 
C6    C     0.13850487128470 0.19156496825595 0.66314554295309 
C7    C     0.17198123139424 0.26792059198923 0.75397966889583 
C8    C     0.01202246179962 0.71252522269974 0.90272771803497 
C9    C     0.04715794920644 0.88469015215446 0.91672527180533 
C10   C     0.18280897016068 0.32278410690911 0.61211549949230 
C11   C     0.12544736550679 0.17139475428808 0.87834217177257 
C12   C     0.09988618260200 0.14931848704691 0.64007304596465 
C13   C     0.16666881451831 0.28123227879240 0.82583280260737 
C14   C     0.21532375347433 0.39695659838145 0.70182433782346 
C15   C     0.22135453352982 0.41409894947589 0.63283872663915 
C16   C     0.10548241032979 0.20390913247852 0.57106631842379 
C17   C     0.18758908446535 0.37639039509101 0.54181270312875 
C18   C     0.15000529107948 0.31140070602277 0.52066811748431 
