data_stdin
_audit_creation_method 'critic2'
_audit_creation_date 2023-8-11
_chemical_formula_sum 'C18 H12'
_cell_formula_units_Z 8
_cell_length_a        22.1798718807
_cell_length_b        14.8246437407
_cell_length_c         7.4499648909
_cell_angle_alpha        90.0010
_cell_angle_beta        90.0002
_cell_angle_gamma        90.0001
_cell_volume          2449.613262
_space_group_crystal_system orthorhombic
_space_group_IT_number 45
_space_group_name_H-M_alt 'Iba2'
_space_group_name_Hall 'I 2 -2c'
loop_
_symmetry_equiv_pos_site_id
_symmetry_equiv_pos_as_xyz
 1 'x,y,z'
 2 '-x,-y,z'
 3 'x,-y,-1/2+z'
 4 '-1/2-x,-1/2+y,z'
 5 '-1/2+x,-1/2+y,-1/2+z'
 6 '-1/2-x,-1/2-y,-1/2+z'
 7 '-1/2+x,-1/2-y,z'
 8 '-x,y,-1/2+z'
loop_
_atom_site_label
_atom_site_type_symbol
_atom_site_fract_x
_atom_site_fract_y
_atom_site_fract_z
H1    H     0.23678636983951 0.79673804032921 0.41620606020396 
H2    H     0.34231035979508 0.81529347997968 0.33474023941098 
H3    H     0.40932317993800 0.68141417977562 0.29972543993257 
H4    H     0.36963939981518 0.52886518003044 0.37937286998187 
H5    H     0.29080247985362 0.43345845003904 0.48877468996500 
H6    H     0.17324814015053 0.78690448995758 0.24223514958789 
H7    H     0.18585903982166 0.41303145972787 0.59704841988925 
H8    H     0.08962215021594 0.47071789993740 0.66983705938244 
H9    H     0.01308900979546 0.59328520970842 0.66722456016145 
H10   H     0.09450637008340 0.90004578968822 0.22459986935023 
H11   H     0.98055947989576 0.73988315989190 0.56616135063362 
H12   H     0.99845982993940 0.88226597013193 0.39880238005770 
C1    C     0.26418051991372 0.73693136980133 0.39853730000826 
C2    C     0.23838693014760 0.65050104003654 0.42712703001668 
C3    C     0.17498548990682 0.63497153969223 0.46432508962732 
C4    C     0.32439638013418 0.74775653025932 0.35549812975214 
C5    C     0.27918665988977 0.57534519003194 0.42953843007570 
C6    C     0.12743077996861 0.70072941008715 0.43533668027637 
C7    C     0.15839446998303 0.54976815973927 0.53680293034769 
C8    C     0.36257549021115 0.67234808994037 0.33987849011826 
C9    C     0.34035547015012 0.58793192978867 0.38124914977520 
C10   C     0.06926361993522 0.68556506020597 0.51496419040618 
C11   C     0.25857547022252 0.48886099977533 0.48518210023514 
C12   C     0.13343102020733 0.77836383016076 0.32507406985392 
C13   C     0.20079859995163 0.47758219999745 0.54354903065870 
C14   C     0.09934605004140 0.53565233011640 0.60771884046172 
C15   C     0.05708367005859 0.60261052999885 0.60492799970831 
C16   C     0.08809483993252 0.84224559019262 0.31275042009026 
C17   C     0.02378531017773 0.75223539010888 0.50127933046908 
C18   C     0.03357250984450 0.83105171032650 0.40683710981352 
