data_stdin
_audit_creation_method 'critic2'
_audit_creation_date 2023-8-11
_chemical_formula_sum 'C18 H12'
_cell_formula_units_Z 8
_cell_length_a        16.1936975133
_cell_length_b        26.8405084530
_cell_length_c         5.6091944261
_cell_angle_alpha        90.0029
_cell_angle_beta        90.0124
_cell_angle_gamma        89.9992
_cell_volume          2438.019890
_space_group_crystal_system triclinic
_space_group_IT_number 2
_space_group_name_H-M_alt 'P-1'
_space_group_name_Hall '-P 1'
loop_
_symmetry_equiv_pos_site_id
_symmetry_equiv_pos_as_xyz
 1 'x,y,z'
 2 '-x,-y,-z'
loop_
_atom_site_label
_atom_site_type_symbol
_atom_site_fract_x
_atom_site_fract_y
_atom_site_fract_z
H1    H     0.56879212670892 0.04010943081395 0.00200484421410 
H2    H     0.06874575776898 0.45997818556386 0.99785674558424 
H3    H     0.43130330753839 0.54009242027242 0.49799737504571 
H4    H     0.93110530066715 0.95996607382074 0.50200547857869 
H5    H     0.53895127540432 0.96866568821859 0.25911849410535 
H6    H     0.03894644621135 0.53140830842818 0.74057897396957 
H7    H     0.46113793872336 0.46867237100033 0.24066719380089 
H8    H     0.96106082403705 0.03136974934265 0.75925919609869 
H9    H     0.61242419330509 0.95801908462771 0.64676233671787 
H10   H     0.11247296161257 0.54203172793806 0.35311202344056 
H11   H     0.38756908142397 0.45803401855905 0.85317044409934 
H12   H     0.88762198637972 0.04203009210792 0.14687651853955 
H13   H     0.72297968732726 0.01776312561841 0.75776044889526 
H14   H     0.22302696687736 0.48226757171232 0.24241755121953 
H15   H     0.27695749977349 0.51776708929858 0.74248124288413 
H16   H     0.77703334737008 0.98230947598674 0.25774735161868 
H17   H     0.81210464932850 0.08565712491515 0.65974335707694 
H18   H     0.31211954422270 0.41437256829834 0.34068991262077 
H19   H     0.18786242058166 0.58566640562261 0.84071703855485 
H20   H     0.68794789174306 0.91438653645349 0.15983153046319 
H21   H     0.50689113210651 0.10246659015490 0.02987684515800 
H22   H     0.00682438140859 0.39763129097989 0.96997487137226 
H23   H     0.49320887231170 0.60245394114161 0.46992527469503 
H24   H     0.99303549848886 0.89766501662805 0.52956602066320 
H25   H     0.85668240671642 0.15218093194694 0.37883132764160 
H26   H     0.35662297094089 0.34782845654110 0.62168778578714 
H27   H     0.14336274981066 0.65220615842768 0.12170218236168 
H28   H     0.64337244477979 0.84782176447537 0.87904091839213 
H29   H     0.83612370309629 0.20121494495596 0.03035769561380 
H30   H     0.33598704724922 0.29878483059557 0.97000787738970 
H31   H     0.16400460154987 0.70123465020708 0.47022168210452 
H32   H     0.66393537924724 0.79875339107194 0.53074798492944 
H33   H     0.75195502019331 0.22703594400662 0.68187225678349 
H34   H     0.25179674829904 0.27299078763538 0.31835960350319 
H35   H     0.24822216310843 0.72701394050853 0.81864673657086 
H36   H     0.74801053129928 0.77292105538055 0.18225940195309 
H37   H     0.42225727465617 0.13484276964735 0.70320539270962 
H38   H     0.92215141700952 0.36526440863261 0.29646901321166 
H39   H     0.57793685833058 0.63481894656772 0.79639861207912 
H40   H     0.07756211325000 0.86534740807569 0.20272302196540 
H41   H     0.62593327299237 0.22358945867920 0.45754492834197 
H42   H     0.12576957330154 0.27647049005825 0.54247795045278 
H43   H     0.37429795250793 0.72352472060272 0.04283176602109 
H44   H     0.87395557150970 0.77642456982571 0.95769477215452 
H45   H     0.48276979923733 0.19340085258396 0.40273054531424 
H46   H     0.98261313152868 0.30669307620685 0.59704173361886 
H47   H     0.51749069138660 0.69334407857871 0.09721209615734 
H48   H     0.01703598959708 0.80672452963548 0.90242480598560 
C1    C     0.59910208882886 0.03757242565646 0.17396658976912 
C2    C     0.09907674894000 0.46250018247636 0.82595925400338 
C3    C     0.40095847938468 0.53756100070715 0.32608225675420 
C4    C     0.90083810642698 0.96248917377167 0.67399214612066 
C5    C     0.65739732779467 0.07453840001877 0.24055681365637 
C6    C     0.15736765393105 0.42552183081219 0.75952959353433 
C7    C     0.34264216542973 0.57452581195842 0.25963540284014 
C8    C     0.84255683606032 0.92552184999033 0.74056477766928 
C9    C     0.67470766857462 0.11893488660159 0.10189964820749 
C10   C     0.17464197320192 0.38112284666441 0.89824036203510 
C11   C     0.32536774688894 0.61892075339546 0.39835704839006 
C12   C     0.82525003246021 0.88111478370518 0.60193635838036 
C13   C     0.58371508858504 0.99646872970225 0.31604055373497 
C14   C     0.08372186247434 0.50360149134971 0.68381464302822 
C15   C     0.41633014185799 0.49646552945822 0.18391619549127 
C16   C     0.91626777540535 0.00358427676465 0.81611989791537 
C17   C     0.70573999525598 0.06467158190718 0.44960807510704 
C18   C     0.20573533526163 0.43537457461202 0.55057623943572 
C19   C     0.29425861067146 0.56466711688373 0.05066070122803 
C20   C     0.79425059239985 0.93538851418754 0.94962450996457 
C21   C     0.62007182696521 0.13938924564133 0.92152370128047 
C22   C     0.11998416286815 0.36068251862475 0.07852269167995 
C23   C     0.38004403518291 0.63936116263477 0.57864981803184 
C24   C     0.87985345081476 0.86067034748371 0.42152911550664 
C25   C     0.75030942224305 0.14423408718685 0.14702044502703 
C26   C     0.25022849221544 0.35580035555924 0.85324414879761 
C27   C     0.24976876683184 0.64423707263518 0.35337115887533 
C28   C     0.74968257206153 0.85578813986262 0.64715874909848 
C29   C     0.62570693825367 0.98998795706601 0.53363457956655 
C30   C     0.12573237811466 0.51006453940723 0.46629328195530 
C31   C     0.37429653236582 0.48999483566545 0.96637727876647 
C32   C     0.87431137599158 0.01006540702479 0.03371815511278 
C33   C     0.68673044996979 0.02339179500040 0.59664381077512 
C34   C     0.18675719314554 0.47665149725847 0.40345759141981 
C35   C     0.31324193034461 0.52339277436882 0.90353587532525 
C36   C     0.81327334939164 0.97667245127257 0.09666328080641 
C37   C     0.65059570014292 0.17736306014618 0.76452261934239 
C38   C     0.15047620035135 0.32269915298867 0.23557581505304 
C39   C     0.34956121115149 0.67732722237718 0.73579239147515 
C40   C     0.84933827584143 0.82266247809881 0.26463151383741 
C41   C     0.77648570840532 0.09430048045179 0.50038758703811 
C42   C     0.27647357533310 0.40573085057965 0.49995073685683 
C43   C     0.22351391361330 0.59430853958504 0.00001513835592 
C44   C     0.72353614266760 0.90574321655395 0.00046144846004 
C45   C     0.53544782048237 0.12647899948645 0.89777423590860 
C46   C     0.03536224672760 0.37361051341900 0.10212220232209 
C47   C     0.46468078351679 0.62645371650274 0.60215436544154 
C48   C     0.96444949682664 0.87362908804360 0.39757298993339 
C49   C     0.80029732586941 0.13101067102962 0.34676347343962 
C50   C     0.30024487571185 0.36901242789238 0.65361634742144 
C51   C     0.19974465663316 0.63102521848406 0.15368415305938 
C52   C     0.69972835464119 0.86901133938758 0.84690757330154 
C53   C     0.77678328800466 0.18359012433206 0.99398198675812 
C54   C     0.27666237111775 0.31643138179309 0.00630345788008 
C55   C     0.22334291808855 0.68359337268301 0.50650119086842 
C56   C     0.72322407981742 0.81639995111255 0.49424195026281 
C57   C     0.73045611485835 0.19814022532898 0.80303659831051 
C58   C     0.23032240822144 0.30189575276310 0.19717970420951 
C59   C     0.26970523537074 0.69811971113412 0.69743100742028 
C60   C     0.76952236826800 0.80184568331331 0.30329034023694 
C61   C     0.48699093366655 0.14555236139110 0.71581731039743 
C62   C     0.98688398300848 0.35454597856886 0.28398903360674 
C63   C     0.51319213491679 0.64551988238741 0.78400641345792 
C64   C     0.01285847390538 0.85458497744071 0.21550124349666 
C65   C     0.60040561566434 0.19564799614844 0.57737088431765 
C66   C     0.10026495714163 0.30442228051762 0.42262547520741 
C67   C     0.39980418139114 0.69559603022061 0.92287919576082 
C68   C     0.89949111697641 0.80439359682154 0.07740219998301 
C69   C     0.52020092286240 0.17927841068715 0.54926727697901 
C70   C     0.02006474565321 0.32080854373586 0.45058477583682 
C71   C     0.48002144086516 0.67922791141102 0.95073704189398 
C72   C     0.97964676589226 0.82082245986746 0.04906380482727 
