data_stdin
_audit_creation_method 'critic2'
_audit_creation_date 2023-8-11
_chemical_formula_sum 'C18 H12'
_cell_formula_units_Z 4
_cell_length_a        10.2549281645
_cell_length_b         3.8511974146
_cell_length_c        29.9458211834
_cell_angle_alpha        90.0005
_cell_angle_beta        76.0332
_cell_angle_gamma        89.9955
_cell_volume          1147.707828
_space_group_crystal_system monoclinic
_space_group_IT_number 14
_space_group_name_H-M_alt 'P2_1/c'
_space_group_name_Hall '-P 2ybc'
loop_
_symmetry_equiv_pos_site_id
_symmetry_equiv_pos_as_xyz
 1 'x,y,z'
 2 '-x,-y,-z'
 3 '-x,-1/2+y,-1/2-z'
 4 'x,-1/2-y,-1/2+z'
loop_
_atom_site_label
_atom_site_type_symbol
_atom_site_fract_x
_atom_site_fract_y
_atom_site_fract_z
H1    H     0.08876475041869 0.50317859042003 0.70536104009773 
H2    H     0.18955066970916 0.66847703011212 0.76829982007558 
H3    H     0.41507386018642 0.95261634123688 0.75209743994698 
H4    H     0.54154299036679 0.03924785083926 0.67119417002116 
H5    H     0.56366306958888 0.96943895888255 0.58914224008353 
H6    H     0.97400737950443 0.83113331107166 0.68130525010154 
H7    H     0.47549361958378 0.73717186898383 0.52511010014089 
H8    H     0.30546040005499 0.44218522074346 0.49706291016153 
H9    H     0.07173438022758 0.23615750966179 0.50752894989820 
H10   H     0.73692654968768 0.73465299893585 0.68459870987390 
H11   H     0.84102514951902 0.23903087079088 0.55206360009775 
H12   H     0.66677871966079 0.42708636127472 0.62091753991288 
C1    C     0.18414843955357 0.63982594926972 0.69734175005530 
C2    C     0.24949168996598 0.70764473914044 0.65075095995918 
C3    C     0.19163300950606 0.62718001046234 0.61234021004234 
C4    C     0.24252072960519 0.72488865093914 0.73296475014865 
C5    C     0.38416615964879 0.83977430097172 0.64177063010018 
C6    C     0.04968102027489 0.56976450072186 0.61611892000422 
C7    C     0.27941831010576 0.60909975049606 0.56783433983589 
C8    C     0.37031435012030 0.88065113120571 0.72392455005083 
C9    C     0.44038691013960 0.93134496914471 0.67890042014711 
C10   C     0.00775904984959 0.41972699046904 0.57800143986918 
C11   C     0.46254030040250 0.86235863926806 0.59552980983414 
C12   C     0.94708087044060 0.68371137997617 0.65398331998924 
C13   C     0.41369081955335 0.73538286960499 0.56023951016914 
C14   C     0.23384225048095 0.46628782010710 0.53034211984436 
C15   C     0.10453180997942 0.35557265045503 0.53590873993958 
C16   C     0.81257063004020 0.63431569069521 0.65549257985958 
C17   C     0.86968153968941 0.36035657051198 0.58114685996034 
C18   C     0.77299527031945 0.46422776053064 0.61934359013492 
