data_stdin
_audit_creation_method 'critic2'
_audit_creation_date 2023-8-11
_chemical_formula_sum 'C18 H12'
_cell_formula_units_Z 4
_cell_length_a         4.4584709285
_cell_length_b        13.6694455004
_cell_length_c        19.7403858578
_cell_angle_alpha        90.0004
_cell_angle_beta        78.4245
_cell_angle_gamma        89.9988
_cell_volume          1178.605156
_space_group_crystal_system monoclinic
_space_group_IT_number 14
_space_group_name_H-M_alt 'P2_1/c'
_space_group_name_Hall '-P 2ybc'
loop_
_symmetry_equiv_pos_site_id
_symmetry_equiv_pos_as_xyz
 1 'x,y,z'
 2 '-x,-y,-z'
 3 '-x,-1/2+y,-1/2-z'
 4 'x,-1/2-y,-1/2+z'
loop_
_atom_site_label
_atom_site_type_symbol
_atom_site_fract_x
_atom_site_fract_y
_atom_site_fract_z
H1    H     0.86790958959907 0.92776381980650 0.38376100009996 
H2    H     0.63358819911364 0.99920148973818 0.29396460009824 
H3    H     0.42582095906645 0.89233106025836 0.21119928022515 
H4    H     0.50422253927832 0.71259695018233 0.21501471021998 
H5    H     0.71879703029347 0.57118071965266 0.26069523974765 
H6    H     0.64208123068658 0.89812508036503 0.47401490012703 
H7    H     0.02059119950260 0.49901688005202 0.34085396014006 
H8    H     0.27076324888678 0.51110691032382 0.43509427010796 
H9    H     0.38703905904449 0.59933369966805 0.53651176999976 
H10   H     0.71348293091936 0.97281946965935 0.58119793994370 
H11   H     0.29254028912540 0.73385246016515 0.61566713995498 
H12   H     0.04637882054355 0.89280824027064 0.65340116025497 
C1    C     0.77245572925004 0.87925151977355 0.35011365982622 
C2    C     0.79890137915226 0.77655286965990 0.35736524974853 
C3    C     0.92495051968331 0.73007521032942 0.41161022004522 
C4    C     0.64403236985628 0.91989062978035 0.29836813015405 
C5    C     0.71401786914438 0.71702821998903 0.30436125997985 
C6    C     0.95416520934799 0.77670255007248 0.47608961002507 
C7    C     0.02206049033646 0.63128603018933 0.40125121974528 
C8    C     0.53416491065734 0.86002167995268 0.25067095001980 
C9    C     0.57398193912539 0.76011518009270 0.25335671980402 
C10   C     0.12524858914905 0.72809175024800 0.52065270012688 
C11   C     0.78600581963676 0.61536224009312 0.30107234997523 
C12   C     0.80247506016228 0.86443290033325 0.50154455980292 
C13   C     0.94910690877436 0.57539785980336 0.34573750016562 
C14   C     0.19098068979026 0.58562196988095 0.44664882996103 
C15   C     0.25161688936887 0.63365059969333 0.50288265976085 
C16   C     0.83631741997782 0.90570512994431 0.56359816010031 
C17   C     0.15725296995914 0.77193212013897 0.58365419983075 
C18   C     0.01958563893259 0.86027959012358 0.60464010013205 
