data_stdin
_audit_creation_method 'critic2'
_audit_creation_date 2023-8-11
_chemical_formula_sum 'C18 H12'
_cell_formula_units_Z 8
_cell_length_a         8.2598917500
_cell_length_b        19.7781840900
_cell_length_c        14.9112069400
_cell_angle_alpha        90.0000
_cell_angle_beta        90.0000
_cell_angle_gamma        89.9999
_cell_volume          2435.979157
_space_group_crystal_system orthorhombic
_space_group_IT_number 61
_space_group_name_H-M_alt 'Pbca'
_space_group_name_Hall '-P 2ac 2ab'
loop_
_symmetry_equiv_pos_site_id
_symmetry_equiv_pos_as_xyz
 1 'x,y,z'
 2 '-x,-y,-z'
 3 '-1/2-x,-y,-1/2+z'
 4 '-1/2+x,y,-1/2-z'
 5 '-1/2+x,-1/2-y,-z'
 6 '-1/2-x,-1/2+y,z'
 7 '-x,-1/2+y,-1/2-z'
 8 'x,-1/2-y,-1/2+z'
loop_
_atom_site_label
_atom_site_type_symbol
_atom_site_fract_x
_atom_site_fract_y
_atom_site_fract_z
H1    H     0.65001144477481 0.95028425052121 0.79764470503272 
H2    H     0.84292247356734 0.04345576024335 0.79258219805034 
H3    H     0.77725864778524 0.15410849178313 0.86483721134001 
H4    H     0.50343239985077 0.17232309131653 0.92915213420306 
H5    H     0.22740220018687 0.13466454948629 0.95210311713300 
H6    H     0.64046718603313 0.88428903300868 0.89592044846000 
H7    H     0.01610660262026 0.04692213718865 0.93445711937631 
H8    H     0.93250195657508 0.93651166201846 0.89095475626458 
H9    H     0.99350575682522 0.81871566074998 0.84393243510322 
H10   H     0.69508457106619 0.76462668050116 0.87186802385458 
H11   H     0.18905932106754 0.72874741557687 0.82224552832845 
H12   H     0.46965239855069 0.68547109148765 0.82804889693755 
C1    C     0.61954650174697 0.99711954523156 0.83149936513676 
C2    C     0.46564491716625 0.00415569594680 0.87278559135496 
C3    C     0.34703515392493 0.95018069919479 0.87780623513617 
C4    C     0.72818273020551 0.05024978165249 0.82736207978087 
C5    C     0.42166229254502 0.07050585222320 0.90326047263917 
C6    C     0.38399928983384 0.87905277941850 0.86637519609260 
C7    C     0.18322540064800 0.96821056389874 0.89390579752657 
C8    C     0.68949756013499 0.11317443502817 0.86580555358321 
C9    C     0.53757496817551 0.12321954628598 0.90192883008278 
C10   C     0.25414116869945 0.83209210688114 0.85199564340499 
C11   C     0.25884347413873 0.08397057189964 0.92939154242022 
C12   C     0.54182175163674 0.85160581764888 0.87534037103378 
C13   C     0.14246431177700 0.03543352626985 0.92030067504731 
C14   C     0.05696906537704 0.91964737278142 0.88215049257041 
C15   C     0.09047548706576 0.85466239825432 0.85750503940441 
C16   C     0.57216538979173 0.78347770721599 0.86333113520997 
C17   C     0.28919781485251 0.76302519063653 0.83620587797030 
C18   C     0.44589642478220 0.73883928008383 0.84038177313228 
