data_stdin
_audit_creation_method 'critic2'
_audit_creation_date 2023-8-11
_chemical_formula_sum 'C18 H12'
_cell_formula_units_Z 8
_cell_length_a         7.5747676288
_cell_length_b        17.2515128459
_cell_length_c        18.6910147008
_cell_angle_alpha        90.0008
_cell_angle_beta        89.9990
_cell_angle_gamma        89.9991
_cell_volume          2442.470794
_space_group_crystal_system orthorhombic
_space_group_IT_number 61
_space_group_name_H-M_alt 'Pbca'
_space_group_name_Hall '-P 2ac 2ab'
loop_
_symmetry_equiv_pos_site_id
_symmetry_equiv_pos_as_xyz
 1 'x,y,z'
 2 '-x,-y,-z'
 3 '-1/2-x,-y,-1/2+z'
 4 '-1/2+x,y,-1/2-z'
 5 '-1/2+x,-1/2-y,-z'
 6 '-1/2-x,-1/2+y,z'
 7 '-x,-1/2+y,-1/2-z'
 8 'x,-1/2-y,-1/2+z'
loop_
_atom_site_label
_atom_site_type_symbol
_atom_site_fract_x
_atom_site_fract_y
_atom_site_fract_z
H1    H     0.47579937054952 0.62094137024406 0.03608135001836 
H2    H     0.36236929972433 0.48847551012625 0.03061878014282 
H3    H     0.31658031065828 0.41158045009431 0.14156463977904 
H4    H     0.40014115054838 0.46894988995609 0.25909868007412 
H5    H     0.50397973951180 0.57483004001149 0.33045616012888 
H6    H     0.32523845959431 0.71212405989764 0.03900299018501 
H7    H     0.64528883064500 0.70421073007687 0.33879914993381 
H8    H     0.77935911991551 0.81340620971871 0.28234535979796 
H9    H     0.81041164951889 0.90189008982847 0.17842544984992 
H10   H     0.31659438054550 0.81279055982141 0.94810943974057 
H11   H     0.70306718989393 0.94555612012513 0.06443640005789 
H12   H     0.51098625033135 0.92986535984532 0.95756147983058 
C1    C     0.45137612996807 0.59018101016016 0.08578097023647 
C2    C     0.48746625934008 0.62691775994402 0.15212826994993 
C3    C     0.54565650996363 0.70665059992954 0.15914477009022 
C4    C     0.39001819944854 0.51462900021823 0.08239604979237 
C5    C     0.47234104044878 0.58002143027425 0.21533322023337 
C6    C     0.53170279935491 0.76538878025231 0.10359953006301 
C7    C     0.61893936049008 0.72960992002284 0.22587673993488 
C8    C     0.36556613951621 0.47079337002332 0.14506663019231 
C9    C     0.41036550059083 0.50295213023830 0.21023169998979 
C10   C     0.63093858038747 0.83594061012897 0.11130254987929 
C11   C     0.52160702054534 0.61077302014447 0.28311555010445 
C12   C     0.41566523004641 0.76066093006254 0.04401620020685 
C13   C     0.59881674027809 0.68196110976785 0.28766408011037 
C14   C     0.71394412000289 0.80069747998130 0.23182998998272 
C15   C     0.72929099036056 0.84989514976376 0.17504828977326 
C16   C     0.40777798940586 0.81868537974491 0.99278104977032 
C17   C     0.62330629003785 0.89347148983556 0.05745402979494 
C18   C     0.51517468989568 0.88496505001491 0.99845377006740 
