data_stdin
_audit_creation_method 'critic2'
_audit_creation_date 2023-8-11
_chemical_formula_sum 'C18 H12'
_cell_formula_units_Z 4
_cell_length_a         9.5412593620
_cell_length_b        17.4399013900
_cell_length_c         7.2668848100
_cell_angle_alpha        90.0000
_cell_angle_beta        90.0000
_cell_angle_gamma        90.0011
_cell_volume          1209.199621
_space_group_crystal_system orthorhombic
_space_group_IT_number 33
_space_group_name_H-M_alt 'Pna2_1'
_space_group_name_Hall 'P 2c -2n'
loop_
_symmetry_equiv_pos_site_id
_symmetry_equiv_pos_as_xyz
 1 'x,y,z'
 2 '-x,-y,-1/2+z'
 3 '-1/2-x,-1/2+y,-1/2+z'
 4 '-1/2+x,-1/2-y,z'
loop_
_atom_site_label
_atom_site_type_symbol
_atom_site_fract_x
_atom_site_fract_y
_atom_site_fract_z
H1    H     0.99588926047307 0.06031655983581 0.99456629968561 
H2    H     0.77016486967305 0.00174486011857 0.07248551021434 
H3    H     0.75571931025353 0.86375304974858 0.15706512060288 
H4    H     0.97051181027449 0.78280695981056 0.14013636034413 
H5    H     0.21440950962718 0.76682507002912 0.05692998019271 
H6    H     0.11142934997953 0.10492651018172 0.19466946958983 
H7    H     0.43784737947757 0.82237136978266 0.94071748066051 
H8    H     0.58073657955331 0.92844319984122 0.86244716010728 
H9    H     0.62394289961665 0.06836129015502 0.84479819981200 
H10   H     0.17171645974249 0.24067589018518 0.20965364015920 
H11   H     0.55424181013835 0.19764611998469 0.91464735999027 
H12   H     0.38926545051807 0.29018062997226 0.05993460007406 
C1    C     0.99315861003582 0.00068295980426 0.03725950058983 
C2    C     0.11956780037353 0.95786958023634 0.04179650009598 
C3    C     0.25704766960029 0.99062177989902 0.00951830990841 
C4    C     0.86516116012229 0.96730219982428 0.07651068992074 
C5    C     0.10747203992122 0.87661953004773 0.06842119939952 
C6    C     0.28980482976388 0.07143354996212 0.02722734944284 
C7    C     0.36761221010805 0.93998756010147 0.96094245952671 
C8    C     0.85647655993341 0.88886952025794 0.12110128985299 
C9    C     0.97580822048601 0.84423388023675 0.11380671045414 
C10   C     0.42211411049071 0.09900730017932 0.96025379017915 
C11   C     0.22617566949235 0.82848136025594 0.03813171994937 
C12   C     0.20375842954574 0.12487869020571 0.12176910027402 
C13   C     0.34920226971177 0.85900790980869 0.97583851949511 
C14   C     0.49983875013106 0.96915548024513 0.90257497033655 
C15   C     0.52430770010966 0.04616461992004 0.89465122966761 
C16   C     0.23923512044507 0.20165172012139 0.13376563019698 
C17   C     0.45398239012163 0.17824189976482 0.96945338011250 
C18   C     0.36313549036558 0.22944834017178 0.05202102059118 
