data_stdin
_audit_creation_method 'critic2'
_audit_creation_date 2023-8-11
_chemical_formula_sum 'C18 H12'
_cell_formula_units_Z 4
_cell_length_a         3.8652403206
_cell_length_b        21.1825239046
_cell_length_c        14.2032801849
_cell_angle_alpha        89.9942
_cell_angle_beta        87.5472
_cell_angle_gamma        89.9927
_cell_volume          1161.835849
_space_group_crystal_system monoclinic
_space_group_IT_number 14
_space_group_name_H-M_alt 'P2_1/c'
_space_group_name_Hall '-P 2ybc'
loop_
_symmetry_equiv_pos_site_id
_symmetry_equiv_pos_as_xyz
 1 'x,y,z'
 2 '-x,-y,-z'
 3 '-x,-1/2+y,-1/2-z'
 4 'x,-1/2-y,-1/2+z'
loop_
_atom_site_label
_atom_site_type_symbol
_atom_site_fract_x
_atom_site_fract_y
_atom_site_fract_z
H1    H     0.91763470004659 0.81234863986919 0.33472357974950 
H2    H     0.72306966981218 0.89360989012051 0.44576955968327 
H3    H     0.47736651988774 0.99559013981667 0.38816889984381 
H4    H     0.49631577035353 0.01716311021575 0.21614443992854 
H5    H     0.68106996906566 0.98919101020829 0.05725157974872 
H6    H     0.59862029974056 0.74870754985094 0.28819004986772 
H7    H     0.96862041120025 0.91390065981808 0.94539584015111 
H8    H     0.21849933114807 0.81356047995248 0.90961754008221 
H9    H     0.33580656097151 0.70210242993359 0.95098887987106 
H10   H     0.64235837065152 0.63564416990215 0.31577168988715 
H11   H     0.23159233880559 0.61330301982313 0.05418438032398 
H12   H     0.97418899031625 0.56630572994717 0.20093843988874 
C1    C     0.80771064997727 0.85539369022435 0.30736767965316 
C2    C     0.79624219083967 0.86421399015451 0.20863291971578 
C3    C     0.89973068985760 0.81672170999859 0.13947100015795 
C4    C     0.70074158973908 0.90189073993513 0.37057497017185 
C5    C     0.70114461914813 0.92581521009964 0.17687006968764 
C6    C     0.91646925121395 0.74959231996969 0.15857832969016 
C7    C     0.98453570113083 0.83736130016636 0.04623460969066 
C8    C     0.57124743938432 0.95972217981786 0.33835214026391 
C9    C     0.57759833984039 0.97147976995156 0.24269048018389 
C10   C     0.07874714028153 0.70861152978352 0.08938012001180 
C11   C     0.75216587039682 0.94200503997634 0.07992234972669 
C12   C     0.75562158945405 0.72049044000999 0.23907043968655 
C13   C     0.90780782102915 0.90034890004611 0.01827631991188 
C14   C     0.14427626067410 0.79524441988568 0.97920811966787 
C15   C     0.20394281081819 0.73364405014150 0.00129739969691 
C16   C     0.77503457012677 0.65609310018941 0.25381387970742 
C17   C     0.09988773100702 0.64303027977581 0.10707817997087 
C18   C     0.95488035111429 0.61685998001315 0.18850453973342 
