data_stdin
_audit_creation_method 'critic2'
_audit_creation_date 2023-8-11
_chemical_formula_sum 'C18 H12'
_cell_formula_units_Z 2
_cell_length_a        10.8064929960
_cell_length_b         7.2486784418
_cell_length_c         8.4747154111
_cell_angle_alpha       104.8191
_cell_angle_beta       110.9098
_cell_angle_gamma        84.9113
_cell_volume           599.500336
_space_group_crystal_system triclinic
_space_group_IT_number 2
_space_group_name_H-M_alt 'P-1'
_space_group_name_Hall '-P 1'
loop_
_symmetry_equiv_pos_site_id
_symmetry_equiv_pos_as_xyz
 1 'x,y,z'
 2 '-x,-y,-z'
loop_
_atom_site_label
_atom_site_type_symbol
_atom_site_fract_x
_atom_site_fract_y
_atom_site_fract_z
H1    H     0.45824915002942 0.84651155965055 0.94875381053517 
H2    H     0.22291716017345 0.90193316983061 0.89410263944774 
H3    H     0.06252969996015 0.86573268959296 0.58952422971534 
H4    H     0.14873647018529 0.79706497002022 0.34533220041814 
H5    H     0.32992902993384 0.76249535047860 0.23851663031074 
H6    H     0.54809724976099 0.59684074977958 0.95371181972817 
H7    H     0.57133280978290 0.77212179987059 0.29855557005060 
H8    H     0.79463027991260 0.78550257022723 0.49195946042802 
H9    H     0.96317909016736 0.77850995918316 0.78076322946148 
H10   H     0.71979891991339 0.53386141999359 0.21519590936424 
H11   H     0.01971315965261 0.71623581030275 0.06447435964236 
H12   H     0.95687012966407 0.60724060942444 0.28143838004087 
C1    C     0.39144745969296 0.82501989032436 0.81487344988350 
C2    C     0.44341049021935 0.77588056070349 0.67752194013904 
C3    C     0.58310870971191 0.74622945021564 0.70358509044753 
C4    C     0.25769596021042 0.85804594015569 0.78429193940093 
C5    C     0.35230891012965 0.77428504943789 0.50580176022220 
C6    C     0.68124776951515 0.70734753949413 0.86020855950829 
C7    C     0.62703118997293 0.75829402978733 0.56741624024895 
C8    C     0.16782894965454 0.84047629028814 0.61342810943664 
C9    C     0.21549117998987 0.80048642927262 0.47724828939799 
C10   C     0.81909821986250 0.72721719077517 0.88935380030434 
C11   C     0.40078694038988 0.76247765044261 0.36768972047420 
C12   C     0.65009025016955 0.63401513019558 0.98152876978718 
C13   C     0.53369677989865 0.76457787959204 0.39999416015850 
C14   C     0.76527699013976 0.76817697982287 0.59760419017034 
C15   C     0.85797502971374 0.76384925061188 0.75611636000490 
C16   C     0.74702252983920 0.59715784061329 0.12875067989774 
C17   C     0.91593871029427 0.69759205988845 0.04515789977050 
C18   C     0.88109699979996 0.63522334957548 0.16462827060828 
