data_stdin
_audit_creation_method 'critic2'
_audit_creation_date 2023-8-11
_chemical_formula_sum 'C18 H12'
_cell_formula_units_Z 8
_cell_length_a        40.4333642947
_cell_length_b         3.8626821755
_cell_length_c        15.9853329736
_cell_angle_alpha        89.9435
_cell_angle_beta        68.2343
_cell_angle_gamma        89.9692
_cell_volume          2318.618940
_space_group_crystal_system triclinic
_space_group_IT_number 2
_space_group_name_H-M_alt 'P-1'
_space_group_name_Hall '-P 1'
loop_
_symmetry_equiv_pos_site_id
_symmetry_equiv_pos_as_xyz
 1 'x,y,z'
 2 '-x,-y,-z'
 3 '-1/2+x,-1/2+y,z'
 4 '-1/2-x,-1/2-y,-z'
loop_
_atom_site_label
_atom_site_type_symbol
_atom_site_fract_x
_atom_site_fract_y
_atom_site_fract_z
H1    H     0.10167514437068 0.15033339422459 0.20440596807653 
H2    H     0.89831073927091 0.14972975362894 0.29569770909731 
H3    H     0.04432861933028 0.31211537026668 0.19838761340583 
H4    H     0.95562694329821 0.31187124845699 0.30174166298806 
H5    H     0.00043248839426 0.65779287471072 0.32338213440995 
H6    H     0.99950713618480 0.65782960495194 0.17664896238169 
H7    H     0.01352431519399 0.78110598136232 0.45984001737372 
H8    H     0.98644359163754 0.78088825152379 0.04007153178446 
H9    H     0.05055856630725 0.71832939029059 0.54703972373304 
H10   H     0.94946189962021 0.71748047907448 0.95279208183172 
H11   H     0.14370380799704 0.45993991986710 0.15686248988697 
H12   H     0.85627009043084 0.45936310383528 0.34303289248265 
H13   H     0.10458261093614 0.47526376195090 0.56421416286390 
H14   H     0.89548200922309 0.47399836561126 0.93563348802802 
H15   H     0.16064621007233 0.18591329533979 0.50442241985609 
H16   H     0.83941872869002 0.18479787925602 0.99551361561973 
H17   H     0.21125958996692 0.94471784212218 0.37600556112278 
H18   H     0.78877371925809 0.94411200330289 0.12402936005636 
H19   H     0.19732051932944 0.29155153350764 0.03106051411925 
H20   H     0.80263373130776 0.29130479941274 0.46887582619900 
H21   H     0.24178242789805 0.87034870710864 0.21555199222800 
H22   H     0.75821260853594 0.87022388935949 0.28451015337277 
H23   H     0.24635821214296 0.97175201428820 0.05837321486790 
H24   H     0.75360199239026 0.97183163655040 0.44166215987167 
C1    C     0.08377240449331 0.31029256527419 0.25787875230493 
C2    C     0.91620853267833 0.30975329558613 0.24217054340333 
C3    C     0.09328608492733 0.40168845331659 0.33191977393321 
C4    C     0.90670690601729 0.40104771281545 0.16805734254933 
C5    C     0.12738270837983 0.32076909306943 0.33765244669024 
C6    C     0.87262455788765 0.32000916739887 0.16230770744374 
C7    C     0.05096459333095 0.39637622543725 0.25523807591265 
C8    C     0.94899957711435 0.39603968161879 0.24482771003119 
C9    C     0.06610018802884 0.55759406813916 0.40790809958380 
C10   C     0.93389267770546 0.55701832330498 0.09202390890201 
C11   C     0.15922042365997 0.23466927693298 0.26101624738482 
C12   C     0.84077612450744 0.23407283135539 0.23895894457090 
C13   C     0.12973583241328 0.32629799469597 0.42404621851898 
C14   C     0.87029563467801 0.32535300773276 0.07588420471011 
C15   C     0.02585789735583 0.58102917753998 0.32648851548665 
C16   C     0.97409902358324 0.58084582223436 0.17352674166411 
C17   C     0.03328880134910 0.65418659284856 0.40211150229426 
C18   C     0.96668285877045 0.65387943174288 0.09783899941975 
C19   C     0.18914230231180 0.08886080867310 0.27624096904938 
C20   C     0.81086205875587 0.08837705045274 0.22376657339788 
C21   C     0.07146506076856 0.59593164853421 0.49061847674642 
C22   C     0.92855216748025 0.59511465165122 0.00925705986119 
C23   C     0.16389877599821 0.31097748222606 0.17053299932207 
C24   C     0.83608023835367 0.31047554541135 0.32941248504043 
C25   C     0.10142032463274 0.46679082286053 0.49945169687442 
C26   C     0.89861990317403 0.46574850241054 0.00043075237863 
C27   C     0.16044966066533 0.19124220251296 0.43642936724982 
C28   C     0.83959451946153 0.19029796821066 0.06352306504421 
C29   C     0.18846669905380 0.06091277744088 0.36581459463602 
C30   C     0.81156074387912 0.06024578119272 0.13418891792597 
C31   C     0.19464311450317 0.22155648242420 0.09928417992837 
C32   C     0.80532398332452 0.22126211385969 0.40067977840046 
C33   C     0.21987756735045 0.99019058497311 0.20212767469914 
C34   C     0.78011181327402 0.98996808669242 0.29790479618493 
C35   C     0.22254532618472 0.04949134089105 0.11470466828940 
C36   C     0.77742567617517 0.04936912344649 0.38530898341201 
