data_stdin
_audit_creation_method 'critic2'
_audit_creation_date 2023-8-11
_chemical_formula_sum 'C18 H12'
_cell_formula_units_Z 4
_cell_length_a         7.2854356782
_cell_length_b        23.8819193008
_cell_length_c         7.3172347261
_cell_angle_alpha        90.0036
_cell_angle_beta        68.3328
_cell_angle_gamma        90.0004
_cell_volume          1183.172931
_space_group_crystal_system monoclinic
_space_group_IT_number 14
_space_group_name_H-M_alt 'P2_1/c'
_space_group_name_Hall '-P 2ybc'
loop_
_symmetry_equiv_pos_site_id
_symmetry_equiv_pos_as_xyz
 1 'x,y,z'
 2 '-x,-y,-z'
 3 '-x,-1/2+y,-1/2-z'
 4 'x,-1/2-y,-1/2+z'
loop_
_atom_site_label
_atom_site_type_symbol
_atom_site_fract_x
_atom_site_fract_y
_atom_site_fract_z
H1    H     0.15968375045345 0.36251381015807 0.84528672934284 
H2    H     0.13509079974993 0.41665078995100 0.57171281948787 
H3    H     0.88652052961264 0.49388415990195 0.63463227989763 
H4    H     0.65153673963177 0.51098103999499 0.97298677069794 
H5    H     0.50181011007381 0.48277333999401 0.31496702071208 
H6    H     0.32729595024021 0.38966705988028 0.99874140951007 
H7    H     0.48171580978888 0.41517585983764 0.57825031063694 
H8    H     0.60733179019143 0.33556241979366 0.69492564984856 
H9    H     0.88619317060815 0.27275553992997 0.67599893964779 
H10   H     0.61297529070751 0.34100899979961 0.02323984983090 
H11   H     0.23411405978707 0.25186543020824 0.53300005932398 
H12   H     0.56827709072936 0.26982125002253 0.28575178934793 
C1    C     0.05490986967104 0.39694217008132 0.87692068044453 
C2    C     0.92743592026032 0.40722832008204 0.07402178945457 
C3    C     0.93564895958345 0.37649455020136 0.24163488944395 
C4    C     0.03956618950318 0.42710487003551 0.72160581977026 
C5    C     0.77212218990659 0.44728002019449 0.10511233959602 
C6    C     0.10828095964614 0.34701384998127 0.24501450980127 
C7    C     0.76379496939013 0.37613752988468 0.41605179028751 
C8    C     0.89749149003710 0.46972287985897 0.75611660924520 
C9    C     0.76593152952827 0.47925211013412 0.94498241966856 
C10   C     0.08680465025974 0.30894970018809 0.40359668017782 
C11   C     0.61767056006894 0.45178524018027 0.29345706039899 
C12   C     0.30320779965584 0.35756439997812 0.11033631032930 
C13   C     0.60788505070976 0.41497600016290 0.43946270970809 
C14   C     0.74666135944707 0.33725280984802 0.56952390058642 
C15   C     0.89959336991691 0.30280060981582 0.55956565027420 
C16   C     0.46512689011879 0.33039262989633 0.12471136027701 
C17   C     0.25416772999196 0.28060946013996 0.41175671023712 
C18   C     0.44050226042168 0.29074286989688 0.27419954972190 
