data_stdin
_audit_creation_method 'critic2'
_audit_creation_date 2023-8-11
_chemical_formula_sum 'C18 H12'
_cell_formula_units_Z 4
_cell_length_a        14.9219444897
_cell_length_b         3.9374112879
_cell_length_c        20.7215587906
_cell_angle_alpha        89.9908
_cell_angle_beta        68.8640
_cell_angle_gamma        89.9951
_cell_volume          1135.568027
_space_group_crystal_system monoclinic
_space_group_IT_number 14
_space_group_name_H-M_alt 'P2_1/c'
_space_group_name_Hall '-P 2ybc'
loop_
_symmetry_equiv_pos_site_id
_symmetry_equiv_pos_as_xyz
 1 'x,y,z'
 2 '-x,-y,-z'
 3 '-x,-1/2+y,-1/2-z'
 4 'x,-1/2-y,-1/2+z'
loop_
_atom_site_label
_atom_site_type_symbol
_atom_site_fract_x
_atom_site_fract_y
_atom_site_fract_z
H1    H     0.92497369984823 0.01718886999285 0.25579472024298 
H2    H     0.06280795999508 0.22141497941640 0.15898025003195 
H3    H     0.04949404996912 0.33942142003692 0.04475673014448 
H4    H     0.89807719006147 0.19395347095256 0.02712533013552 
H5    H     0.74083518014755 0.94388406070848 0.06711612991947 
H6    H     0.84219050002054 0.30979341066538 0.32014091001549 
H7    H     0.60313125017098 0.68672959063367 0.16122259983848 
H8    H     0.51931244997578 0.56356886057017 0.27860589023725 
H9    H     0.50126166980574 0.57829659993235 0.40214269977535 
H10   H     0.81635809009175 0.34908285971128 0.44205780980676 
H11   H     0.55718771002553 0.76130002962946 0.49142303013062 
H12   H     0.67453448978063 0.06475488984982 0.53060553019683 
C1    C     0.91520063962581 0.07497170001296 0.20764261013640 
C2    C     0.82441330981785 0.02368118105700 0.20163908982396 
C3    C     0.73685957040453 0.93320216893733 0.25857036982074 
C4    C     0.99430693983061 0.18438523120496 0.15244909978872 
C5    C     0.82192525013588 0.04865016895862 0.13319365988044 
C6    C     0.72164436015586 0.97705662931572 0.33136145015603 
C7    C     0.65958481012672 0.79958045934456 0.24165596992468 
C8    C     0.98766838968252 0.24536606881149 0.08752400998110 
C9    C     0.90301552959670 0.16952749009783 0.07808506012636 
C10   C     0.63644266997885 0.84051415898270 0.38281112978615 
C11   C     0.73967884014794 0.93406980002465 0.11995123009891 
C12   C     0.78324251007141 0.16760464886312 0.35622908990407 
C13   C     0.66356649008405 0.79611563947528 0.17177506016981 
C14   C     0.57533531001622 0.67225770897710 0.29429702006088 
C15   C     0.56505440998556 0.68251972992945 0.36238924001529 
C16   C     0.76736600000549 0.19568840057499 0.42600103994655 
C17   C     0.62192771040451 0.87206974014697 0.45390440983813 
C18   C     0.68688421011416 0.04147344919940 0.47567850018017 
