data_stdin
_audit_creation_method 'critic2'
_audit_creation_date 2023-8-11
_chemical_formula_sum 'C18 H12'
_cell_formula_units_Z 4
_cell_length_a        16.1391431495
_cell_length_b         3.8848750505
_cell_length_c        20.7902194435
_cell_angle_alpha        90.0002
_cell_angle_beta        62.9765
_cell_angle_gamma        90.0007
_cell_volume          1161.199585
_space_group_crystal_system monoclinic
_space_group_IT_number 14
_space_group_name_H-M_alt 'P2_1/c'
_space_group_name_Hall '-P 2ybc'
loop_
_symmetry_equiv_pos_site_id
_symmetry_equiv_pos_as_xyz
 1 'x,y,z'
 2 '-x,-y,-z'
 3 '-x,-1/2+y,-1/2-z'
 4 'x,-1/2-y,-1/2+z'
loop_
_atom_site_label
_atom_site_type_symbol
_atom_site_fract_x
_atom_site_fract_y
_atom_site_fract_z
H1    H     0.65857736016442 0.83923257990715 0.40942849999282 
H2    H     0.69327699009482 0.64999550994649 0.28799791991325 
H3    H     0.84148323979350 0.33659823954543 0.21146459998568 
H4    H     0.95768922040654 0.25906035883707 0.25724207979582 
H5    H     0.01175253006500 0.36550073013420 0.34580648981594 
H6    H     0.59154598022260 0.55258579903353 0.49432530984568 
H7    H     0.98832052012036 0.63985538062439 0.46061585000869 
H8    H     0.89328926008334 0.91968466905283 0.57157870023057 
H9    H     0.73996923995458 0.13745964882654 0.66274553002638 
H10   H     0.44049458983080 0.70476030098897 0.59270389023338 
H11   H     0.57383583043135 0.16741110967650 0.70893267976997 
H12   H     0.42970686007271 0.03230828910347 0.69952862005819 
C1    C     0.72171622000906 0.69326842980540 0.37871328010505 
C2    C     0.78383167984984 0.63159965992352 0.40855368002489 
C3    C     0.76537160999467 0.72861310058023 0.48123982015370 
C4    C     0.74221407013290 0.59231643957003 0.30923588973168 
C5    C     0.87269767977720 0.48751755085839 0.36108093000851 
C6    C     0.67376852033757 0.80327645961989 0.53920912979762 
C7    C     0.84241588000402 0.75037465884704 0.49663457002480 
C8    C     0.82618680037911 0.42259859104032 0.26557400979704 
C9    C     0.89061955013500 0.37614665948723 0.29121168008327 
C10   C     0.66609532958866 0.95856127975427 0.60434183023274 
C11   C     0.94496472018839 0.47809634074885 0.38249767001099 
C12   C     0.58944015972403 0.70841780985887 0.53829249000853 
C13   C     0.93143668011107 0.62415386920021 0.44619943983785 
C14   C     0.83175875011140 0.89667854921987 0.56291757016284 
C15   C     0.74735915017558 0.01178397914180 0.61358640997703 
C16   C     0.50367127004326 0.78812694994418 0.59468457976442 
C17   C     0.57762302974519 0.04290393904760 0.66074662992641 
C18   C     0.49736703993813 0.96529330948330 0.65573245977796 
