data_stdin
_audit_creation_method 'critic2'
_audit_creation_date 2023-8-11
_chemical_formula_sum 'C18 H12'
_cell_formula_units_Z 2
_cell_length_a         8.1611920631
_cell_length_b        11.1821756805
_cell_length_c         7.2310867205
_cell_angle_alpha        76.4334
_cell_angle_beta        73.1011
_cell_angle_gamma        70.1764
_cell_volume           587.177275
_space_group_crystal_system triclinic
_space_group_IT_number 2
_space_group_name_H-M_alt 'P-1'
_space_group_name_Hall '-P 1'
loop_
_symmetry_equiv_pos_site_id
_symmetry_equiv_pos_as_xyz
 1 'x,y,z'
 2 '-x,-y,-z'
loop_
_atom_site_label
_atom_site_type_symbol
_atom_site_fract_x
_atom_site_fract_y
_atom_site_fract_z
H1    H     0.48955688989731 0.99266312025637 0.18099845050674 
H2    H     0.43537238003271 0.22342200967193 0.15891726957855 
H3    H     0.12361883962016 0.37177250976112 0.20785475060672 
H4    H     0.86856534953648 0.28339593043731 0.26259331016325 
H5    H     0.75610621946501 0.11010681001147 0.26583055975905 
H6    H     0.49501865944358 0.86561565970843 0.42822838030153 
H7    H     0.81554456978230 0.88569817974956 0.21506126063495 
H8    H     0.01691318019459 0.67865222971542 0.15876697020631 
H9    H     0.31388388981679 0.51578540038382 0.15142911989468 
H10   H     0.76552029957524 0.69189995994908 0.46954592065187 
H11   H     0.60534170979788 0.44616573022335 0.22403963056820 
H12   H     0.83079821030868 0.48246409964755 0.35742516028608 
C1    C     0.35235009080088 0.05396489981538 0.20916140932016 
C2    C     0.20972321048048 0.99984631037887 0.24512924951537 
C3    C     0.23546745034465 0.86418904026914 0.25269904928044 
C4    C     0.32212588028709 0.18491343988399 0.19434937062943 
C5    C     0.03306876976365 0.08725585956418 0.25570174006207 
C6    C     0.39649607956778 0.76318577024679 0.28403210930257 
C7    C     0.09445597970869 0.82794323975621 0.22527897047214 
C8    C     0.14649869056064 0.26876955979301 0.21918826949627 
C9    C     0.00491183000968 0.21995357024967 0.24951439036851 
C10   C     0.42626025054477 0.63811955966945 0.23894917956955 
C11   C     0.88921501059400 0.04187423009018 0.25706691929235 
C12   C     0.52185513022113 0.77713660952210 0.37223440066905 
C13   C     0.92128681047591 0.91822618018518 0.23149570939273 
C14   C     0.12560162922576 0.70094640027064 0.18907279044587 
C15   C     0.28874028959586 0.61118747009073 0.18572291963509 
C16   C     0.67451092067470 0.67811236976287 0.39778335954195 
C17   C     0.58645091942299 0.53997606046392 0.26015064982483 
C18   C     0.71079158004928 0.55977489042757 0.33535500980779 
