data_stdin
_audit_creation_method 'critic2'
_audit_creation_date 2023-8-11
_chemical_formula_sum 'C18 H12'
_cell_formula_units_Z 4
_cell_length_a        15.9961939365
_cell_length_b         3.8936350563
_cell_length_c        19.5615002304
_cell_angle_alpha        90.0171
_cell_angle_beta        73.2483
_cell_angle_gamma        90.1166
_cell_volume          1166.649679
_space_group_crystal_system triclinic
_space_group_IT_number 2
_space_group_name_H-M_alt 'P-1'
_space_group_name_Hall '-P 1'
loop_
_symmetry_equiv_pos_site_id
_symmetry_equiv_pos_as_xyz
 1 'x,y,z'
 2 '-x,-y,-z'
loop_
_atom_site_label
_atom_site_type_symbol
_atom_site_fract_x
_atom_site_fract_y
_atom_site_fract_z
H1    H     0.39090749973270 0.06753403923160 0.77718808991913 
H2    H     0.60906080018411 0.56792766903409 0.72306910013558 
H3    H     0.53173314993798 0.12746454998068 0.79885207016092 
H4    H     0.46819695972265 0.62805861090926 0.70161341992681 
H5    H     0.54269695002765 0.22890040919459 0.92253275985891 
H6    H     0.45706088023674 0.72968551102299 0.57800548012006 
H7    H     0.40679262018589 0.29889438014456 0.02194644996536 
H8    H     0.59290659000940 0.79929009020788 0.47841613024706 
H9    H     0.25075710024108 0.34218986051677 0.06609311014090 
H10   H     0.74895288979967 0.84209087009568 0.43403973975268 
H11   H     0.33149224988880 0.65328412015634 0.77144526994630 
H12   H     0.66810324989761 0.15421120068633 0.72885006979198 
H13   H     0.10557091006402 0.34083039966466 0.04457400001507 
H14   H     0.89428107989877 0.84054279999585 0.45530502019428 
H15   H     0.01535531003512 0.27689972925169 0.96837463010078 
H16   H     0.98464052996767 0.77659522047928 0.53131245013842 
H17   H     0.99345933992510 0.14825761052337 0.85100315997211 
H18   H     0.00673942993180 0.64813269052714 0.64859816002620 
H19   H     0.30398099973340 0.48785314122504 0.65954141016831 
H20   H     0.69573610991275 0.98858324036287 0.84065548008781 
H21   H     0.04903517015170 0.94531249979953 0.73032836992373 
H22   H     0.95121729017468 0.44536374954829 0.76933433010168 
H23   H     0.16481019978344 0.65314458987237 0.63467550008156 
H24   H     0.83534766988543 0.15336126951235 0.86517683010126 
C1    C     0.39259622023228 0.09687755066170 0.83187686996958 
C2    C     0.60729741004589 0.59737903993237 0.66840607005819 
C3    C     0.31338870988587 0.10923792917242 0.88808883025101 
C4    C     0.68644268984473 0.60970337103829 0.61211361987383 
C5    C     0.22741806983861 0.06626157973689 0.87824358981889 
C6    C     0.77243712974645 0.56670430927225 0.62182985994611 
C7    C     0.47304606981436 0.13819864989444 0.84392975989819 
C8    C     0.52682580984809 0.63880295071380 0.65647060012645 
C9    C     0.32043023028782 0.19884162903687 0.95742952973240 
C10   C     0.67933866010914 0.69920309048168 0.54279757995478 
C11   C     0.21124045978226 0.93516863922612 0.81373682989352 
C12   C     0.78865808996821 0.43570540988906 0.68629901993625 
C13   C     0.15412593970588 0.17277946902929 0.93463580001079 
C14   C     0.84575829983683 0.67296064908604 0.56531937019273 
C15   C     0.47923194965215 0.19946456956254 0.91312030026228 
C16   C     0.52055073992518 0.70010697000558 0.58731619996546 
C17   C     0.40357509978895 0.23476855059204 0.96853856008323 
C18   C     0.59616566001248 0.73525478953262 0.53180885994906 
C19   C     0.12713720019692 0.98590538124520 0.80303446022310 
C20   C     0.87289885988421 0.48623947119858 0.69682796987264 
C21   C     0.24384227977980 0.27033982033321 0.01415982004696 
C22   C     0.75591805976025 0.77041725918393 0.48595544003511 
C23   C     0.27231771033275 0.74210922076557 0.76077498982340 
C24   C     0.72746013983531 0.24280742014066 0.73938356023402 
C25   C     0.16388175996865 0.26887107110442 0.00231289980152 
C26   C     0.83595189998696 0.76884652983447 0.49766309005754 
C27   C     0.06976950978971 0.19328950024587 0.92397416994967 
C28   C     0.93021747983663 0.69331129961678 0.57581982012793 
C29   C     0.05744286996699 0.11937052005653 0.85943679023601 
C30   C     0.94264551014615 0.61947637886010 0.64031060013343 
C31   C     0.25599578026379 0.64284693985428 0.69793232975714 
C32   C     0.74384965982119 0.14335729068939 0.80215986976362 
C33   C     0.11270340982239 0.89036818951694 0.73758525985892 
C34   C     0.88741464968032 0.39059318088649 0.76222498018442 
C35   C     0.17652684018369 0.72782949059772 0.68478300984943 
C36   C     0.82352299001107 0.22809513877913 0.81512895012646 
