data_stdin
_audit_creation_method 'critic2'
_audit_creation_date 2023-8-11
_chemical_formula_sum 'C18 H12'
_cell_formula_units_Z 4
_cell_length_a        10.2074396258
_cell_length_b        15.5203247201
_cell_length_c         7.5302174888
_cell_angle_alpha        89.9990
_cell_angle_beta        94.9108
_cell_angle_gamma        90.0010
_cell_volume          1188.578907
_space_group_crystal_system monoclinic
_space_group_IT_number 14
_space_group_name_H-M_alt 'P2_1/c'
_space_group_name_Hall '-P 2ybc'
loop_
_symmetry_equiv_pos_site_id
_symmetry_equiv_pos_as_xyz
 1 'x,y,z'
 2 '-x,-y,-z'
 3 '-x,-1/2+y,-1/2-z'
 4 'x,-1/2-y,-1/2+z'
loop_
_atom_site_label
_atom_site_type_symbol
_atom_site_fract_x
_atom_site_fract_y
_atom_site_fract_z
H1    H     0.51980352981819 0.42827627980332 0.26134561953977 
H2    H     0.75095915983504 0.43795299022631 0.20266057029417 
H3    H     0.87004224998733 0.30923309995373 0.10153144022637 
H4    H     0.75435908007655 0.16798164025869 0.07671347964257 
H5    H     0.56650409045671 0.07958688970394 0.11596862043569 
H6    H     0.37263650987170 0.45246056031185 0.09278426979910 
H7    H     0.34035108962145 0.06330276015296 0.20933692981920 
H8    H     0.15004020043018 0.12100751009379 0.32342669961349 
H9    H     0.01116400017961 0.24458233005824 0.39860454937297 
H10   H     0.22146714997602 0.57009687018328 0.13709597949554 
H11   H     0.96752292983488 0.39705198994796 0.39301602990716 
H12   H     0.02050058984313 0.54571896016135 0.29947852981401 
C1    C     0.56731799004414 0.37183423975429 0.21138663960937 
C2    C     0.49584278986825 0.29354760983259 0.18913614044596 
C3    C     0.35823975959662 0.28457493996166 0.22034213996407 
C4    C     0.69884568953369 0.37705629991104 0.18167236992753 
C5    C     0.56923294988260 0.21837542968776 0.14806542052687 
C6    C     0.26792193018773 0.35594341017093 0.23450043988207 
C7    C     0.30841430957640 0.20003863019085 0.24031155003070 
C8    C     0.76691472003615 0.30413897024274 0.12687832057222 
C9    C     0.70277592954319 0.22595106012682 0.11300114980342 
C10   C     0.14439646039535 0.34062083973647 0.30674463960939 
C11   C     0.50927690999658 0.13555408020636 0.14976811002824 
C12   C     0.28904585956181 0.44013135974667 0.16906052054008 
C13   C     0.38497448957193 0.12674739982406 0.20075805056006 
C14   C     0.18166785950999 0.18693511985872 0.30209460974731 
C15   C     0.10507452008219 0.25479541974097 0.34328493997643 
C16   C     0.20165154006340 0.50676700996005 0.19072880050658 
C17   C     0.05879692967601 0.41032676001690 0.33293421032655 
C18   C     0.08746846029739 0.49274473992233 0.27904232039216 
