data_stdin
_audit_creation_method 'critic2'
_audit_creation_date 2023-8-11
_chemical_formula_sum 'C18 H12'
_cell_formula_units_Z 4
_cell_length_a        11.4340749384
_cell_length_b        11.4680566801
_cell_length_c         9.3594457155
_cell_angle_alpha        90.0000
_cell_angle_beta        74.2553
_cell_angle_gamma        90.0001
_cell_volume          1181.225729
_space_group_crystal_system monoclinic
_space_group_IT_number 14
_space_group_name_H-M_alt 'P2_1/c'
_space_group_name_Hall '-P 2ybc'
loop_
_symmetry_equiv_pos_site_id
_symmetry_equiv_pos_as_xyz
 1 'x,y,z'
 2 '-x,-y,-z'
 3 '-x,-1/2+y,-1/2-z'
 4 'x,-1/2-y,-1/2+z'
loop_
_atom_site_label
_atom_site_type_symbol
_atom_site_fract_x
_atom_site_fract_y
_atom_site_fract_z
H1    H     0.45201281983744 0.84500914989649 0.68809451999903 
H2    H     0.54565815989378 0.66494814958710 0.57256742978802 
H3    H     0.44541173950920 0.47310800017449 0.64583862045719 
H4    H     0.25412970012016 0.46550621980203 0.85178761040751 
H5    H     0.10216310961350 0.55844883961936 0.04701870011076 
H6    H     0.34393335009777 0.93643551977118 0.60905303041583 
H7    H     0.02211266043818 0.73728675000531 0.19057352986376 
H8    H     0.02027125010746 0.94042822974275 0.22698006005469 
H9    H     0.08182766993700 0.14075128958149 0.13666599990215 
H10   H     0.37836663963967 0.13407343982601 0.51463132021934 
H11   H     0.17917895028112 0.26955189043155 0.93978739968364 
H12   H     0.30016984011218 0.30475815017634 0.67873563016907 
C1    C     0.40356876983759 0.76346535032654 0.71869687986385 
C2    C     0.29073262029899 0.76343173008309 0.82939472025241 
C3    C     0.22898908030066 0.86807636016222 0.89845332989500 
C4    C     0.45755487967831 0.66141766989053 0.65428263005496 
C5    C     0.24035624980698 0.65164529987366 0.88130721026939 
C6    C     0.25158844030820 0.98454224992156 0.83631043000697 
C7    C     0.13807290007875 0.85522506018129 0.03512270944416 
C8    C     0.40218980048409 0.55282737990327 0.69776877965993 
C9    C     0.29605126008745 0.54872802958755 0.81125032038904 
C10   C     0.19933726029277 0.08275244988549 0.92642488985108 
C11   C     0.13860655021915 0.64423708029208 0.00892352997384 
C12   C     0.31374635001115 0.00797163017945 0.68589516987683 
C13   C     0.09419678955516 0.74235965042878 0.08742262041329 
C14   C     0.08716896030580 0.95477885022540 0.12085600974874 
C15   C     0.12030733955283 0.06477982988228 0.07107012032985 
C16   C     0.33095852002624 0.12044927001205 0.63098119945058 
C17   C     0.21979619955392 0.19714631968714 0.86792292037135 
C18   C     0.28600522043191 0.21653567957856 0.72295504948857 
