data_stdin
_audit_creation_method 'critic2'
_audit_creation_date 2023-8-11
_chemical_formula_sum 'C18 H12'
_cell_formula_units_Z 4
_cell_length_a        16.0528733603
_cell_length_b         3.8911817304
_cell_length_c        19.3897796394
_cell_angle_alpha        90.0037
_cell_angle_beta        73.0464
_cell_angle_gamma        90.0017
_cell_volume          1158.539360
_space_group_crystal_system monoclinic
_space_group_IT_number 14
_space_group_name_H-M_alt 'P2_1/c'
_space_group_name_Hall '-P 2ybc'
loop_
_symmetry_equiv_pos_site_id
_symmetry_equiv_pos_as_xyz
 1 'x,y,z'
 2 '-x,-y,-z'
 3 '-x,-1/2+y,-1/2-z'
 4 'x,-1/2-y,-1/2+z'
loop_
_atom_site_label
_atom_site_type_symbol
_atom_site_fract_x
_atom_site_fract_y
_atom_site_fract_z
H1    H     0.65181145023939 0.95066141995268 0.14110130990617 
H2    H     0.68328850995827 0.75338077000334 0.01707431000131 
H3    H     0.83523671007964 0.60409351041605 0.94556532985337 
H4    H     0.95561556003584 0.69521303931735 0.00020947973829 
H5    H     0.00862697024829 0.88651046959596 0.09734461999901 
H6    H     0.61733008007806 0.64529473113920 0.22057558005641 
H7    H     0.98065232008109 0.15694135065664 0.21815889977757 
H8    H     0.88512732011826 0.34480516913645 0.32917406996572 
H9    H     0.73837609017625 0.38637276896085 0.41657312007652 
H10   H     0.47770041977809 0.65499948877123 0.31126973992994 
H11   H     0.58610361013368 0.24789743890456 0.45170060976013 
H12   H     0.45762528026215 0.96756111077695 0.42810640990008 
C1    C     0.71789428016598 0.87446891898124 0.11290555012785 
C2    C     0.78374652026785 0.90006708097824 0.14808097979799 
C3    C     0.76802625994538 0.99422695981655 0.22328977978714 
C4    C     0.73597096985586 0.76968143988643 0.04188682981599 
C5    C     0.87168508003220 0.84777674020785 0.10413015998382 
C6    C     0.68399883991174 0.97663240065116 0.27764375980918 
C7    C     0.84051478981836 0.10633069900444 0.24541136010586 
C8    C     0.82168199999719 0.69004710049523 0.00118657973334 
C9    C     0.88826413983356 0.73588111920871 0.03197754981605 
C10   C     0.67405710976396 0.12617823078885 0.34728882014449 
C11   C     0.94242218973658 0.92787119052474 0.13182825997557 
C12   C     0.61075492031990 0.79910320008809 0.26847395973561 
C13   C     0.92700501033402 0.07195382017898 0.19850520987591 
C14   C     0.82821661974749 0.24902345933589 0.31542854014240 
C15   C     0.74742836974649 0.27018055077427 0.36383521999255 
C16   C     0.53133694017570 0.79744911089905 0.32120429986266 
C17   C     0.59196122012522 0.12204068066953 0.40028695012816 
C18   C     0.52075142988858 0.96676699944376 0.38727816025963 
