data_stdin
_audit_creation_method 'critic2'
_audit_creation_date 2023-8-11
_chemical_formula_sum 'C18 H12'
_cell_formula_units_Z 8
_cell_length_a         8.0854217500
_cell_length_b        20.1287587600
_cell_length_c        14.4623908500
_cell_angle_alpha        90.0000
_cell_angle_beta        90.0000
_cell_angle_gamma        90.0000
_cell_volume          2353.746936
_space_group_crystal_system orthorhombic
_space_group_IT_number 61
_space_group_name_H-M_alt 'Pbca'
_space_group_name_Hall '-P 2ac 2ab'
loop_
_symmetry_equiv_pos_site_id
_symmetry_equiv_pos_as_xyz
 1 'x,y,z'
 2 '-x,-y,-z'
 3 '-1/2-x,-y,-1/2+z'
 4 '-1/2+x,y,-1/2-z'
 5 '-1/2+x,-1/2-y,-z'
 6 '-1/2-x,-1/2+y,z'
 7 '-x,-1/2+y,-1/2-z'
 8 'x,-1/2-y,-1/2+z'
loop_
_atom_site_label
_atom_site_type_symbol
_atom_site_fract_x
_atom_site_fract_y
_atom_site_fract_z
H1    H     0.37097403012131 0.01405932010680 0.90846686017404 
H2    H     0.30810421999824 0.13077053018837 0.88064137989230 
H3    H     0.53137681046394 0.20939810997439 0.82890448975559 
H4    H     0.82010292986013 0.16924560991673 0.82021809021038 
H5    H     0.02625273039904 0.08287736006128 0.84575354977370 
H6    H     0.36408419995676 0.95042008007830 0.80142196996695 
H7    H     0.09473875996581 0.96911834976265 0.90035374021495 
H8    H     0.01448823999876 0.86002877006901 0.94683235019640 
H9    H     0.80372112016023 0.77044440008974 0.95728309986133 
H10   H     0.17502854974097 0.85646382012430 0.78842881009429 
H11   H     0.53041859972206 0.72988290979909 0.92246210981647 
H12   H     0.25187009947241 0.74553249007401 0.85316938968470 
C1    C     0.46866470977139 0.04654777976219 0.88396750971844 
C2    C     0.63080204016119 0.02093689980021 0.87286915031715 
C3    C     0.67270177009599 0.95142765995857 0.88447016974604 
C4    C     0.43357436030112 0.11294665989355 0.86956566966788 
C5    C     0.76067746017478 0.06778929005266 0.85531319977182 
C6    C     0.55522816979785 0.89733201982093 0.87649812031559 
C7    C     0.84073318009795 0.93534028989038 0.90215592990999 
C8    C     0.55914763955845 0.15735166014782 0.84263787002402 
C9    C     0.72036435964451 0.13498018002314 0.83710075971221 
C10   C     0.60439338975647 0.83199118002126 0.90498015986537 
C11   C     0.92906896956719 0.04703425985227 0.86102764011031 
C12   C     0.39846657986400 0.90358146980682 0.83319529005269 
C13   C     0.96688358977289 0.98416418012633 0.88953472991147 
C14   C     0.88536030013504 0.86965787011454 0.92984903031555 
C15   C     0.76986764963127 0.82025234004794 0.93477225016956 
C16   C     0.29224007046195 0.85005986995054 0.82429923993837 
C17   C     0.49120569006089 0.77862673996626 0.89814405028688 
C18   C     0.33671694050071 0.78729680975959 0.85921543013013 
