data_stdin
_audit_creation_method 'critic2'
_audit_creation_date 2023-8-11
_chemical_formula_sum 'C18 H12'
_cell_formula_units_Z 2
_cell_length_a         9.9739682648
_cell_length_b         3.8879758645
_cell_length_c        15.9200805910
_cell_angle_alpha        90.0022
_cell_angle_beta        71.9712
_cell_angle_gamma        89.9963
_cell_volume           587.046076
_space_group_crystal_system monoclinic
_space_group_IT_number 4
_space_group_name_H-M_alt 'P2_1'
_space_group_name_Hall 'P 2yb'
loop_
_symmetry_equiv_pos_site_id
_symmetry_equiv_pos_as_xyz
 1 'x,y,z'
 2 '-x,-1/2+y,-z'
loop_
_atom_site_label
_atom_site_type_symbol
_atom_site_fract_x
_atom_site_fract_y
_atom_site_fract_z
H1    H     0.05770654026392 0.06158074891078 0.39310438972116 
H2    H     0.10224339037663 0.04146085936199 0.53437809026228 
H3    H     0.34917832974477 0.00503898098377 0.54189603998440 
H4    H     0.54784103015974 0.96193672058768 0.40298634009507 
H5    H     0.63609228941252 0.89624175070617 0.24503493024254 
H6    H     0.04238269993362 0.47499686935819 0.32872461017833 
H7    H     0.59062825991865 0.81339083991318 0.10164309020719 
H8    H     0.43378175010366 0.78624382116677 0.01564009968238 
H9    H     0.20014106996464 0.88097193902793 0.99606969028181 
H10   H     0.82076964055789 0.61744345951344 0.30184143968999 
H11   H     0.96309855950359 0.10257177086812 0.05049626020474 
H12   H     0.77357153016644 0.41380040125341 0.16461996994746 
C1    C     0.16631080034097 0.05836306013080 0.39343194972205 
C2    C     0.27766367035627 0.05175340973944 0.31232674986424 
C3    C     0.25689428952759 0.06250686026783 0.22611054029403 
C4    C     0.19132977951079 0.04166116092727 0.47404913006862 
C5    C     0.41727859057265 0.00021190970221 0.31766894967899 
C6    C     0.12781868026724 0.17154580900345 0.21030665993060 
C7    C     0.36941247032422 0.94852655079665 0.15240994989480 
C8    C     0.32973566030334 0.01807988938006 0.47835721999948 
C9    C     0.44040166015532 0.99505842103304 0.40094637979009 
C10   C     0.10676797970924 0.09305469004752 0.12729425017586 
C11   C     0.53074972052601 0.93076598099711 0.23957991967464 
C12   C     0.02197820966733 0.37103691972853 0.27066177976469 
C13   C     0.50608229974962 0.88952552966438 0.16053573982871 
C14   C     0.34665623028699 0.88730253902184 0.06953997014699 
C15   C     0.21800394990382 0.94156729912118 0.05851651970407 
C16   C     0.89749068042906 0.45627150879169 0.25467647981447 
C17   C     0.97736694958152 0.17663778091970 0.11320122988273 
C18   C     0.87264018990639 0.35010065991427 0.17626651972060 
