data_stdin
_audit_creation_method 'critic2'
_audit_creation_date 2023-8-11
_chemical_formula_sum 'C18 H12'
_cell_formula_units_Z 4
_cell_length_a         3.8355757087
_cell_length_b        10.2586913417
_cell_length_c        29.4724548121
_cell_angle_alpha        90.0078
_cell_angle_beta        86.7492
_cell_angle_gamma        90.0014
_cell_volume          1157.815756
_space_group_crystal_system monoclinic
_space_group_IT_number 14
_space_group_name_H-M_alt 'P2_1/c'
_space_group_name_Hall '-P 2ybc'
loop_
_symmetry_equiv_pos_site_id
_symmetry_equiv_pos_as_xyz
 1 'x,y,z'
 2 '-x,-y,-z'
 3 '-x,-1/2+y,-1/2-z'
 4 'x,-1/2-y,-1/2+z'
loop_
_atom_site_label
_atom_site_type_symbol
_atom_site_fract_x
_atom_site_fract_y
_atom_site_fract_z
H1    H     0.47020747074263 0.24784508973112 0.20098305988787 
H2    H     0.32745908877397 0.40227654046072 0.26239479013086 
H3    H     0.04396490880990 0.61559480975960 0.24618309998395 
H4    H     0.94292928075035 0.67528293042547 0.16665537989453 
H5    H     0.00571027967599 0.63126086982954 0.08571399003871 
H6    H     0.12822064900620 0.11430480956025 0.18042044007286 
H7    H     0.23957317013730 0.49209714011143 0.02238663984802 
H8    H     0.54128280081375 0.30044611029500 0.99491645009061 
H9    H     0.75480201974252 0.07613660045051 0.00656689013200 
H10   H     0.22466495879963 0.87979311968509 0.18563859016422 
H11   H     0.74853083046894 0.88028496029496 0.05269143997953 
H12   H     0.54707169006131 0.76017161034281 0.12261713999631 
C1    C     0.33570108985219 0.33756105983103 0.19322340008441 
C2    C     0.26503672004273 0.36571389004767 0.14750981988287 
C3    C     0.34545035926645 0.27743398043858 0.10999690996355 
C4    C     0.25995080940409 0.42562950023314 0.22794086986890 
C5    C     0.13494361938078 0.49349355030026 0.13818932990688 
C6    C     0.40358848017006 0.13869183019292 0.11480685003839 
C7    C     0.36628073011970 0.32996532016257 0.06541472994198 
C8    C     0.10700014049063 0.54681491969847 0.21879711991057 
C9    C     0.04929604004234 0.58004273979779 0.17449256984874 
C10   C     0.56113809108022 0.06716407970157 0.07718889998481 
C11   C     0.11190379056916 0.53502489016646 0.09227810000046 
C12   C     0.28254792973908 0.06595848991503 0.15342027015316 
C13   C     0.23935720931642 0.45805906030160 0.05739027011920 
C14   C     0.51494984054625 0.25512729015582 0.02838249016549 
C15   C     0.62969603911875 0.13086147975070 0.03463641004968 
C16   C     0.33218676991367 0.93274968984359 0.15604082997868 
C17   C     0.62155186077677 0.93178343982281 0.08143088986137 
C18   C     0.51030693954138 0.86508384955206 0.12025505011271 
