data_stdin
_audit_creation_method 'critic2'
_audit_creation_date 2023-8-11
_chemical_formula_sum 'C18 H12'
_cell_formula_units_Z 8
_cell_length_a        13.1789425868
_cell_length_b        11.5001830014
_cell_length_c        16.4388242052
_cell_angle_alpha        90.0011
_cell_angle_beta        95.2357
_cell_angle_gamma        90.0001
_cell_volume          2481.077433
_space_group_crystal_system monoclinic
_space_group_IT_number 15
_space_group_name_H-M_alt 'C2/c'
_space_group_name_Hall '-C 2yc'
loop_
_symmetry_equiv_pos_site_id
_symmetry_equiv_pos_as_xyz
 1 'x,y,z'
 2 '-1/2-x,-1/2-y,-1/2-z'
 3 '-1/2-x,y,-z'
 4 '-1/2+x,-y,z'
 5 '-1/2+x,-1/2+y,-1/2+z'
 6 '-x,-y,-z'
 7 '-x,-1/2+y,-1/2-z'
 8 'x,-1/2-y,-1/2+z'
loop_
_atom_site_label
_atom_site_type_symbol
_atom_site_fract_x
_atom_site_fract_y
_atom_site_fract_z
H1    H     0.44459203000013 0.05941904013396 0.45738372983689 
H2    H     0.54346649014077 0.14811051996138 0.57459892013807 
H3    H     0.59770373981964 0.35550910027261 0.56970613991448 
H4    H     0.56623883989902 0.46570091973226 0.43975789997624 
H5    H     0.50812619984027 0.47403487964105 0.29643805006468 
H6    H     0.29649564975777 0.06408115030508 0.44161227010801 
H7    H     0.42996016010778 0.37793262028750 0.17148181980610 
H8    H     0.34716444016724 0.21727491959101 0.10273927974762 
H9    H     0.26005134000332 0.02599207022279 0.10416239001142 
H10   H     0.18890206006789 0.89006876007568 0.43934520996854 
H11   H     0.19198521973963 0.86789764974247 0.17910729983356 
H12   H     0.14110001019223 0.78547106022606 0.30842784981589 
C1    C     0.46592959028611 0.15026813999485 0.45391842989077 
C2    C     0.44000745999735 0.21311676991144 0.38060095003907 
C3    C     0.38023043990791 0.16551132037708 0.30990963988268 
C4    C     0.52264604997278 0.19969182034892 0.52008496028858 
C5    C     0.48300179027885 0.32729238998604 0.37532264976092 
C6    C     0.31498415011631 0.06414546964686 0.31186103980154 
C7    C     0.38496315988392 0.22293864958793 0.23379684013114 
C8    C     0.55586621016074 0.31579985008231 0.51671436000400 
C9    C     0.53748494998044 0.37748563966043 0.44485768027729 
C10   C     0.27642016037173 0.01123329003613 0.23626622007072 
C11   C     0.47575040022680 0.38719808004887 0.29913220021979 
C12   C     0.27887028024965 0.01866250960653 0.38417674979948 
C13   C     0.43264434003983 0.33399470981368 0.23027170976834 
C14   C     0.34028905962798 0.17137381027443 0.15995539988552 
C15   C     0.29196190963236 0.06646008986858 0.16077594993213 
C16   C     0.21686917014493 0.92133700022824 0.38300403987562 
C17   C     0.21694003005257 0.90902872974117 0.23715554002267 
C18   C     0.18811682009417 0.86325054018588 0.30910845975258 
