data_stdin
_audit_creation_method 'critic2'
_audit_creation_date 2023-8-11
_chemical_formula_sum 'C18 H12'
_cell_formula_units_Z 8
_cell_length_a         9.8912289240
_cell_length_b        13.6377253100
_cell_length_c        18.0231685901
_cell_angle_alpha        90.0000
_cell_angle_beta        89.9982
_cell_angle_gamma        89.9997
_cell_volume          2431.214834
_space_group_crystal_system orthorhombic
_space_group_IT_number 61
_space_group_name_H-M_alt 'Pbca'
_space_group_name_Hall '-P 2ac 2ab'
loop_
_symmetry_equiv_pos_site_id
_symmetry_equiv_pos_as_xyz
 1 'x,y,z'
 2 '-x,-y,-z'
 3 '-1/2-x,-y,-1/2+z'
 4 '-1/2+x,y,-1/2-z'
 5 '-1/2+x,-1/2-y,-z'
 6 '-1/2-x,-1/2+y,z'
 7 '-x,-1/2+y,-1/2-z'
 8 'x,-1/2-y,-1/2+z'
loop_
_atom_site_label
_atom_site_type_symbol
_atom_site_fract_x
_atom_site_fract_y
_atom_site_fract_z
H1    H     0.99561084008193 0.82605779985606 0.83817785988954 
H2    H     0.89701373952474 0.67805447028178 0.78382184009314 
H3    H     0.64767815990994 0.65877157994594 0.77430637015725 
H4    H     0.49740160988316 0.78675442979851 0.82694452022658 
H5    H     0.46419236014665 0.93832639009893 0.89252859015053 
H6    H     0.04847360954611 0.94259264009058 0.78381431991410 
H7    H     0.55889078971665 0.07651480999249 0.96506152018560 
H8    H     0.74578366954162 0.16267020984155 0.01588702995572 
H9    H     0.99107879982203 0.20159202013634 0.01987581024077 
H10   H     0.28106868022655 0.99803326998963 0.77861129017609 
H11   H     0.21549038969053 0.18161049964568 0.96981274000884 
H12   H     0.37108873989013 0.11549473993593 0.87392673014896 
C1    C     0.88651657987363 0.82136565015511 0.83276672988357 
C2    C     0.80409685975511 0.89928839029243 0.85916693008758 
C3    C     0.85638514996597 0.98928412027689 0.89129115005743 
C4    C     0.83113544976592 0.73699948994502 0.80271615013024 
C5    C     0.66063308975256 0.88294167003927 0.85893588994843 
C6    C     0.99453550026259 0.02348601987319 0.88360558009276 
C7    C     0.76676710028450 0.04701635030703 0.93464404024954 
C8    C     0.69011064987199 0.72545979979390 0.79772571017413 
C9    C     0.60668174022735 0.79685825023479 0.82666875021227 
C10   C     0.04288237036747 0.09854200977313 0.93268430021927 
C11   C     0.57290765038763 0.95111382981920 0.89456431989558 
C12   C     0.08418974965595 0.99141945996864 0.82711881977205 
C13   C     0.62509388043678 0.02795453966578 0.93371302984603 
C14   C     0.81725902982994 0.12388533009772 0.98051530026082 
C15   C     0.95175811977479 0.14569519995706 0.98245342023117 
C16   C     0.21648980996864 0.02413235977307 0.82343758999242 
C17   C     0.17975914007851 0.12831325995716 0.92930858999563 
C18   C     0.26627258955877 0.09126259973165 0.87617031978721 
