data_stdin
_audit_creation_method 'critic2'
_audit_creation_date 2023-8-11
_chemical_formula_sum 'C18 H12'
_cell_formula_units_Z 4
_cell_length_a         3.8749472083
_cell_length_b        29.4666873074
_cell_length_c        10.6246368428
_cell_angle_alpha        90.0002
_cell_angle_beta        73.3515
_cell_angle_gamma        89.9986
_cell_volume          1162.286402
_space_group_crystal_system monoclinic
_space_group_IT_number 14
_space_group_name_H-M_alt 'P2_1/c'
_space_group_name_Hall '-P 2ybc'
loop_
_symmetry_equiv_pos_site_id
_symmetry_equiv_pos_as_xyz
 1 'x,y,z'
 2 '-x,-y,-z'
 3 '-x,-1/2+y,-1/2-z'
 4 'x,-1/2-y,-1/2+z'
loop_
_atom_site_label
_atom_site_type_symbol
_atom_site_fract_x
_atom_site_fract_y
_atom_site_fract_z
H1    H     0.63103021965265 0.30015093999298 0.23438669048709 
H2    H     0.87859654036123 0.23830746014942 0.08236473959586 
H3    H     0.36403154994158 0.25311503008194 0.87486277035557 
H4    H     0.57806077982300 0.33208931993319 0.81949413015600 
H5    H     0.54858861077574 0.41241696989841 0.86768345960912 
H6    H     0.80665894973953 0.31622604002535 0.38278720954077 
H7    H     0.25820900038218 0.47667731987552 0.00895291023466 
H8    H     0.81948870073292 0.50614143008046 0.19566033964524 
H9    H     0.36047171977450 0.49578016003808 0.41033708028698 
H10   H     0.42768529042586 0.31035228010808 0.60940252991826 
H11   H     0.09031758963944 0.44880251986184 0.59847198006205 
H12   H     0.05728573952290 0.37591320999647 0.71939270010545 
C1    C     0.85578497060043 0.30715275996159 0.14875196044824 
C2    C     0.98698011909646 0.35221474986054 0.12491092976170 
C3    C     0.85561318029344 0.38966465001083 0.21434090960721 
C4    C     0.98870905918904 0.27234841010185 0.06101116018911 
C5    C     0.24318195999139 0.36093827997409 0.99981343048753 
C6    C     0.64492555987481 0.38472839010644 0.35063834044199 
C7    C     0.93572846013116 0.43437203987164 0.16493768042043 
C8    C     0.25823703965253 0.28078524985063 0.94282210992128 
C9    C     0.37814939874337 0.32462240992111 0.91244340039157 
C10   C     0.45542201056512 0.42342026001624 0.41892072968644 
C11   C     0.34868972929827 0.40640955016697 0.96177803992925 
C12   C     0.63380110048909 0.34458119989538 0.42528004035518 
C13   C     0.19001511108823 0.44177890001909 0.03992171951124 
C14   C     0.75827218913440 0.47244751991537 0.23854708958739 
C15   C     0.50845587081096 0.46687499992834 0.35749905013617 
C16   C     0.42664808028589 0.34159760999055 0.55484789009409 
C17   C     0.23711934087352 0.41907126991083 0.55021009042350 
C18   C     0.21916832933932 0.37868869984879 0.61744926000823 
