data_stdin
_audit_creation_method 'critic2'
_audit_creation_date 2023-8-11
_chemical_formula_sum 'C18 H12'
_cell_formula_units_Z 4
_cell_length_a         7.1322207758
_cell_length_b        11.1457686853
_cell_length_c        15.1464235593
_cell_angle_alpha        89.9570
_cell_angle_beta        92.4963
_cell_angle_gamma        90.0851
_cell_volume          1202.906817
_space_group_crystal_system triclinic
_space_group_IT_number 2
_space_group_name_H-M_alt 'P-1'
_space_group_name_Hall '-P 1'
loop_
_symmetry_equiv_pos_site_id
_symmetry_equiv_pos_as_xyz
 1 'x,y,z'
 2 '-x,-y,-z'
loop_
_atom_site_label
_atom_site_type_symbol
_atom_site_fract_x
_atom_site_fract_y
_atom_site_fract_z
H1    H     0.91797642044127 0.24972157974873 0.70361083013969 
H2    H     0.07995899044649 0.74852375029393 0.79590272997519 
H3    H     0.19927547050364 0.24528547984309 0.79871845004003 
H4    H     0.80006748981822 0.74319003994084 0.69990262031996 
H5    H     0.25643314967460 0.07583981033066 0.90667430992770 
H6    H     0.74565664974055 0.57404963975412 0.59151387993755 
H7    H     0.00917336935267 0.92233801992119 0.92248281971053 
H8    H     0.99425064008562 0.42166490001515 0.57644780997315 
H9    H     0.69996631944004 0.84324215986597 0.88530676997819 
H10   H     0.30317889981277 0.34358171983055 0.61474775025815 
H11   H     0.91310581055117 0.18393490986346 0.58837130011648 
H12   H     0.08397162041304 0.68256606985027 0.91111150024278 
H13   H     0.40055277997748 0.85401736042829 0.79777229993981 
H14   H     0.60132574048608 0.35538729013926 0.70324931009577 
H15   H     0.20736336020586 0.93455939001866 0.68148804990468 
H16   H     0.79260957015932 0.43662844028701 0.81993295970854 
H17   H     0.15930027993413 0.06241248998654 0.54865656020846 
H18   H     0.83822584973677 0.56455732026829 0.95281284967630 
H19   H     0.86196556002628 0.29510309981415 0.45046183996013 
H20   H     0.13297674968986 0.79409304038859 0.04891880027478 
H21   H     0.27985707982322 0.19491494001002 0.44132842005997 
H22   H     0.71582790007784 0.69683706034794 0.05942509006333 
H23   H     0.54374995020988 0.30876242971063 0.37742592008359 
H24   H     0.45050944956630 0.80953114009124 0.12251261011146 
C1    C     0.93965686017081 0.17312178958557 0.74707878983553 
C2    C     0.05943257981522 0.67200515958781 0.75229417030429 
C3    C     0.80456245976989 0.07940046005997 0.74736784014437 
C4    C     0.19523180012449 0.57894744965983 0.75234795019544 
C5    C     0.64166367023639 0.07117302004896 0.68648217015337 
C6    C     0.35740907955170 0.57131596038688 0.81369290998878 
C7    C     0.09832863006453 0.17234973998764 0.80309950018460 
C8    C     0.90153572953984 0.67071914993665 0.69577231988342 
C9    C     0.82802670944249 0.99150892036780 0.81645078979705 
C10   C     0.17333832938553 0.49120603982052 0.68313816001434 
C11   C     0.62153147969021 0.13453294040649 0.60275414994946 
C12   C     0.37613978968827 0.63467608956134 0.89740617025720 
C13   C     0.49292592059340 0.99385817033483 0.70991847969200 
C14   C     0.50699747952526 0.49474020010095 0.79069538015139 
C15   C     0.12952810047878 0.07839397001862 0.86414152976292 
C16   C     0.87189533001497 0.57692626978918 0.63451058007145 
C17   C     0.99306265000424 0.99143994996965 0.87184839972005 
C18   C     0.00907788052724 0.49061584013045 0.62720914013071 
C19   C     0.44286150052950 0.13318547957826 0.55519417994946 
C20   C     0.55434661985452 0.63419687978647 0.94536785018983 
C21   C     0.68122599933876 0.90820181972426 0.83194184989405 
C22   C     0.32084633991659 0.40854756024409 0.66811615016925 
C23   C     0.77113885020515 0.19192479007406 0.56033144995692 
C24   C     0.22563180975838 0.69128404005374 0.93942918002583 
C25   C     0.51618689001086 0.91361572002865 0.78305941968522 
C26   C     0.48515610945250 0.41450915033667 0.71754571017052 
C27   C     0.31904532019733 0.99285382008416 0.65972683000111 
C28   C     0.68032698003199 0.49443455009958 0.84133728010877 
C29   C     0.29265315060608 0.06300566968947 0.58657066994944 
C30   C     0.70537730988944 0.56464948993771 0.91448939975351 
C31   C     0.74331112938747 0.25356737001828 0.48151010969749 
C32   C     0.25224015956578 0.75312187012156 0.01818963997303 
C33   C     0.41770945990846 0.19789570041243 0.47518234975919 
C34   C     0.57826370952034 0.69913104977255 0.02527813003795 
C35   C     0.56382336056099 0.25990069988171 0.43940434001314 
C36   C     0.43134184998624 0.76046854026967 0.06062115001115 
