data_stdin
_audit_creation_method 'critic2'
_audit_creation_date 2023-8-11
_chemical_formula_sum 'C18 H12'
_cell_formula_units_Z 4
_cell_length_a        19.9615970905
_cell_length_b         8.1986900305
_cell_length_c         7.2010024800
_cell_angle_alpha        90.0000
_cell_angle_beta        90.0000
_cell_angle_gamma        90.0003
_cell_volume          1178.508484
_space_group_crystal_system triclinic
_space_group_IT_number 1
_space_group_name_H-M_alt 'P 1'
_space_group_name_Hall 'P 1'
loop_
_symmetry_equiv_pos_site_id
_symmetry_equiv_pos_as_xyz
 1 'x,y,z'
loop_
_atom_site_label
_atom_site_type_symbol
_atom_site_fract_x
_atom_site_fract_y
_atom_site_fract_z
H1    H     0.71912488989923 0.35126003006642 0.01020142966533 
H2    H     0.28087515985426 0.64873991948972 0.51020161010699 
H3    H     0.78086724996537 0.85126032945693 0.51021926051599 
H4    H     0.21913258988523 0.14873968962209 0.01021919932467 
H5    H     0.60842648989734 0.22383834007625 0.01558334960153 
H6    H     0.39157354978857 0.77616164975540 0.51558338039521 
H7    H     0.89156249994792 0.72383079056507 0.51560746013399 
H8    H     0.10843731981493 0.27616907973363 0.01560741038221 
H9    H     0.50796045997783 0.37679141951645 0.89855885961765 
H10   H     0.49203958978128 0.62320870972569 0.39855862033633 
H11   H     0.99203265018352 0.87677369978195 0.39858196056922 
H12   H     0.00796723024858 0.12322606964429 0.89858196014091 
H13   H     0.52032821996310 0.66305953988319 0.79737206005626 
H14   H     0.47967185976447 0.33694063987384 0.29737178038745 
H15   H     0.97967346984221 0.16304108030770 0.29738857997974 
H16   H     0.02032649015351 0.83695871036108 0.79738865025947 
H17   H     0.58661804975745 0.91178169056272 0.77910680953381 
H18   H     0.41338207021169 0.08821847007383 0.27910663938030 
H19   H     0.91339037984482 0.41176398943855 0.27909858984626 
H20   H     0.08660962991147 0.58823588944930 0.77909881963443 
H21   H     0.78092292014344 0.35125906980157 0.77932038017019 
H22   H     0.21907713019001 0.64874107981130 0.27932084946037 
H23   H     0.71906928992414 0.85125917965223 0.27933831933912 
H24   H     0.28093064017820 0.14874095044340 0.77933842062500 
H25   H     0.69276604976513 0.05721436050512 0.84281118996424 
H26   H     0.30723407013006 0.94278569939070 0.34281109022694 
H27   H     0.80724491005266 0.55720764059255 0.34277493945647 
H28   H     0.19275510013187 0.44279234978981 0.84277518966944 
H29   H     0.80733031023363 0.05718997967377 0.94681433009552 
H30   H     0.19266980020673 0.94280994004302 0.44681418036154 
H31   H     0.69268061993007 0.55719715984474 0.44677793932846 
H32   H     0.30731935976030 0.44280291966391 0.94677811038421 
H33   H     0.91346919015113 0.91171428986733 0.01048404967002 
H34   H     0.08653088013842 0.08828548032883 0.51048390033687 
H35   H     0.58653916977766 0.41173244980397 0.51047567027980 
H36   H     0.41346079982037 0.58826769972460 0.01047570009106 
H37   H     0.89161246004358 0.22379348985493 0.77396168028420 
H38   H     0.10838757981744 0.77620654019668 0.27396219017112 
H39   H     0.60837660978644 0.72380133986054 0.27398626019461 
H40   H     0.39162330984410 0.27619881947664 0.77398613961492 
H41   H     0.97973855985626 0.66296719945178 0.99222586047460 
H42   H     0.02026148003887 0.33703248941844 0.49222587936152 
H43   H     0.52026309995677 0.16298607956320 0.49224249010223 
H44   H     0.47973684024889 0.83701406059663 0.99224230068761 
H45   H     0.99208516996350 0.37669805960798 0.89103345046800 
H46   H     0.00791484980422 0.62330173954483 0.39103374998658 
H47   H     0.50790798014450 0.87671608968117 0.39105706940033 
H48   H     0.49209194995251 0.12328407050125 0.89105674956337 
C1    C     0.67658410996433 0.41861348007103 0.95584313060099 
C2    C     0.32341593977860 0.58138652058256 0.45584320032775 
C3    C     0.82340995017619 0.91861035947502 0.45586106977016 
C4    C     0.17658992022197 0.08138958994991 0.95586107006168 
C5    C     0.68575819013961 0.58171015053062 0.89501986060648 
C6    C     0.31424187017120 0.41828989045832 0.39501988952564 
C7    C     0.81424038988533 0.08170540992451 0.39502917042171 
C8    C     0.18575953015574 0.91829456032169 0.89502921044973 
C9    C     0.75003425018970 0.66396059963540 0.89478558983377 
C10   C     0.24996583016155 0.33603940969281 0.39478563942096 
C11   C     0.74996653992712 0.16396081055866 0.39478577036418 
C12   C     0.25003340015494 0.83603923048425 0.89478582967226 
C13   C     0.61381989989272 0.34697032042788 0.96059821001978 
C14   C     0.38618014980747 0.65302970966283 0.46059821067635 
C15   C     0.88617184996982 0.84696075966083 0.46061283992797 
C16   C     0.11382799984573 0.15303912040602 0.96061281975268 
C17   C     0.62689543991609 0.67325267990891 0.84793736058310 
C18   C     0.37310463985606 0.32674741056202 0.34793726991695 
C19   C     0.87310583990867 0.17324207976343 0.34794340002078 
C20   C     0.12689411011346 0.82675783019168 0.84794348016261 
C21   C     0.81430418003975 0.58168719990435 0.89453930946138 
C22   C     0.18569587977406 0.41831275947088 0.39453944947275 
C23   C     0.68569440984210 0.08169236954176 0.39454864982717 
C24   C     0.31430553024233 0.91830772034207 0.89454866069062 
C25   C     0.75004026007404 0.83722856975776 0.89480157044698 
C26   C     0.24995982979530 0.16277142980911 0.39480152937031 
C27   C     0.74996495021926 0.33722879056777 0.39478502969443 
C28   C     0.25003501992053 0.66277125047479 0.89478514970648 
C29   C     0.55720081020901 0.43371353989360 0.89850888036282 
C30   C     0.44279925007062 0.56628656008648 0.39850872044211 
C31   C     0.94279402998335 0.93370026943196 0.39853114948543 
C32   C     0.05720584994853 0.06629955977121 0.89853117009317 
C33   C     0.56395872023158 0.59394722948087 0.84252257045029 
C34   C     0.43604135007131 0.40605290000316 0.34252239012303 
C35   C     0.93604075005139 0.09393309969744 0.34253832936829 
C36   C     0.06395917998067 0.90606673949514 0.84253837956239 
C37   C     0.87317312977097 0.67320478057306 0.94163935997831 
C38   C     0.12682692009939 0.32679508052786 0.44163940956324 
C39   C     0.62682813984812 0.17321581962575 0.44164541052393 
C40   C     0.37317180983100 0.82678430005340 0.94164537956616 
C41   C     0.63140959002280 0.84496483039901 0.81946437042735 
C42   C     0.36859052006392 0.15503527980882 0.31946425968749 
C43   C     0.86859653015242 0.34495267984274 0.31945693951845 
C44   C     0.13140346020358 0.65504724009441 0.81945712040284 
C45   C     0.82346731003391 0.41859277048176 0.83369615975468 
C46   C     0.17653273980867 0.58140725972622 0.33369650027396 
C47   C     0.67652680014126 0.91859628939846 0.33371425029116 
C48   C     0.32347312997163 0.08140382008850 0.83371425058056 
C49   C     0.69018134023091 0.92481012031417 0.85246649999800 
C50   C     0.30981876003971 0.07518993987804 0.35246640956544 
C51   C     0.80982622003003 0.42480395059285 0.35244455027682 
C52   C     0.19017377002879 0.57519603032509 0.85244475008071 
C53   C     0.80990580012081 0.92478590039227 0.93714297965575 
C54   C     0.19009428986737 0.07521403000972 0.43714290032913 
C55   C     0.69010174017487 0.42479250943874 0.43712097021970 
C56   C     0.30989824010354 0.57520756977422 0.93712107003578 
C57   C     0.86867206008634 0.84491665000431 0.97012632937532 
C58   C     0.13132801006649 0.15508319013607 0.47012626028912 
C59   C     0.63133400980538 0.34492924950504 0.47011880958805 
C60   C     0.36866595013714 0.65507086019410 0.97011884048979 
C61   C     0.88622573009657 0.34692325030365 0.82896076056642 
C62   C     0.11377429974991 0.65307671021285 0.32896111949938 
C63   C     0.61376606018328 0.84693318000280 0.32897560988704 
C64   C     0.38623386997247 0.15306695980906 0.82897549944238 
C65   C     0.93610356016762 0.59387512046701 0.94706192064906 
C66   C     0.06389648013524 0.40612466990702 0.44706200971794 
C67   C     0.56389590012129 0.09388966949016 0.44707781010229 
C68   C     0.43610403999071 0.90611047947592 0.94707767003857 
C69   C     0.94284983013639 0.43364078055410 0.89106979946964 
C70   C     0.05715020015145 0.56635906981817 0.39107005059191 
C71   C     0.55714504013233 0.93365438951791 0.39109246992325 
C72   C     0.44285489998350 0.06634574992146 0.89109225027975 
