data_stdin
_audit_creation_method 'critic2'
_audit_creation_date 2023-8-11
_chemical_formula_sum 'C18 H12'
_cell_formula_units_Z 2
_cell_length_a        15.0529424061
_cell_length_b         7.4489721908
_cell_length_c         8.0697902219
_cell_angle_alpha       108.4913
_cell_angle_beta       123.1010
_cell_angle_gamma        53.2437
_cell_volume           607.244046
_space_group_crystal_system triclinic
_space_group_IT_number 2
_space_group_name_H-M_alt 'P-1'
_space_group_name_Hall '-P 1'
loop_
_symmetry_equiv_pos_site_id
_symmetry_equiv_pos_as_xyz
 1 'x,y,z'
 2 '-x,-y,-z'
loop_
_atom_site_label
_atom_site_type_symbol
_atom_site_fract_x
_atom_site_fract_y
_atom_site_fract_z
H1    H     0.49177735979382 0.18028246083068 0.01807303009298 
H2    H     0.26835591984793 0.43569751033504 0.80942628065746 
H3    H     0.12252799961566 0.68101754073238 0.95837235983372 
H4    H     0.20314732035392 0.62866910951524 0.31336004062322 
H5    H     0.36662535997040 0.41670123992301 0.61824918984538 
H6    H     0.61137744048639 0.28178405952812 0.15691860009328 
H7    H     0.58522164025238 0.10883782973450 0.81575205058003 
H8    H     0.79009858991034 0.82128265054631 0.85578926981663 
H9    H     0.95673510949758 0.63828849057531 0.75836968947988 
H10   H     0.78600834991819 0.13765061040459 0.09874331062027 
H11   H     0.03256135013229 0.64676331931829 0.56377097944015 
H12   H     0.99839185002419 0.81193992071612 0.29615592006011 
C1    C     0.43111359975956 0.28605463984776 0.08691178986447 
C2    C     0.48186886001089 0.26431411988933 0.29324209041611 
C3    C     0.61399043964729 0.11842254033762 0.42463894986902 
C4    C     0.30423040992921 0.42890037032309 0.96808397963709 
C5    C     0.39445498004783 0.38068395958745 0.37029289034746 
C6    C     0.71496844065952 0.03719201917959 0.38404699052916 
C7    C     0.64670721966014 0.05366610002472 0.60695756949797 
C8    C     0.22148435932998 0.56203545075629 0.05053519928020 
C9    C     0.26627904011711 0.53483932979976 0.24812364004857 
C10   C     0.83948609993197 0.86196879029350 0.50687834048917 
C11   C     0.43535607007098 0.32930146001529 0.56465499928818 
C12   C     0.70101596970514 0.13473081064892 0.23983683021242 
C13   C     0.55562638005232 0.16228285020146 0.67405998945024 
C14   C     0.77108503008603 0.87750224006050 0.72456912952861 
C15   C     0.86310900034009 0.77796752928591 0.67188565053607 
C16   C     0.80062365019696 0.05549682006652 0.20891359988196 
C17   C     0.93921688996615 0.78098682044992 0.46945666967711 
C18   C     0.92038092992633 0.87338253984313 0.32109239994155 
