data_stdin
_audit_creation_method 'critic2'
_audit_creation_date 2023-8-11
_chemical_formula_sum 'C18 H12'
_cell_formula_units_Z 2
_cell_length_a        16.6039398696
_cell_length_b         4.8612718229
_cell_length_c         7.5747220610
_cell_angle_alpha        80.3972
_cell_angle_beta       103.1108
_cell_angle_gamma        96.0431
_cell_volume           585.672557
_space_group_crystal_system triclinic
_space_group_IT_number 2
_space_group_name_H-M_alt 'P-1'
_space_group_name_Hall '-P 1'
loop_
_symmetry_equiv_pos_site_id
_symmetry_equiv_pos_as_xyz
 1 'x,y,z'
 2 '-x,-y,-z'
loop_
_atom_site_label
_atom_site_type_symbol
_atom_site_fract_x
_atom_site_fract_y
_atom_site_fract_z
H1    H     0.18502622983541 0.87711097018481 0.58494087060549 
H2    H     0.08130680990224 0.21747881043364 0.45848853051215 
H3    H     0.01675213012623 0.43310191954811 0.66601814029170 
H4    H     0.04896375035221 0.26160434991319 0.99989083060444 
H5    H     0.11354969987965 0.93878000939864 0.25610808968714 
H6    H     0.30048739997369 0.98257060931017 0.64296500026398 
H7    H     0.20832215993979 0.55716205924529 0.38648871036423 
H8    H     0.30620173978781 0.25792183042967 0.36077647975213 
H9    H     0.39777693967188 0.09414059906902 0.18728774981243 
H10   H     0.40402527972755 0.85176545078247 0.49637849973091 
H11   H     0.46205727997259 0.16415841073312 0.92964152988226 
H12   H     0.48486151999428 0.43208167104149 0.63533121991504 
C1    C     0.15977854016263 0.97161018062810 0.67867583992823 
C2    C     0.18524900994298 0.88696023054319 0.87034678984841 
C3    C     0.25009113981301 0.69822773985415 0.95404015037014 
C4    C     0.09993669974681 0.16136461036011 0.60659371025270 
C5    C     0.13932296017949 0.98298776985374 0.98462411032350 
C6    C     0.31244888007624 0.63237120990725 0.86344174021870 
C7    C     0.25343446986219 0.57117459931648 0.13843001011725 
C8    C     0.06190663982197 0.27747661037592 0.72254705035624 
C9    C     0.08051344020123 0.18450928904690 0.90847303994361 
C10   C     0.36416441005325 0.40750545922777 0.94902344930483 
C11   C     0.15027397010692 0.86589476072684 0.17313460008184 
C12   C     0.33102222001221 0.79164734927752 0.70096147026037 
C13   C     0.20251588008509 0.65721442095963 0.24470067011844 
C14   C     0.30761636988811 0.35423990911644 0.22100173947140 
C15   C     0.35845463990343 0.26605634886264 0.12669480064627 
C16   C     0.39141771001801 0.72141231991361 0.62010242969536 
C17   C     0.42442477977790 0.33737688093655 0.86213397938327 
C18   C     0.43741226012769 0.48801862996808 0.69854270972769 
