data_stdin
_audit_creation_method 'critic2'
_audit_creation_date 2023-8-11
_chemical_formula_sum 'C18 H12'
_cell_formula_units_Z 4
_cell_length_a        11.3106965652
_cell_length_b         9.6607417700
_cell_length_c        12.0278579935
_cell_angle_alpha        90.0000
_cell_angle_beta        66.7041
_cell_angle_gamma        90.0000
_cell_volume          1207.133486
_space_group_crystal_system monoclinic
_space_group_IT_number 14
_space_group_name_H-M_alt 'P2_1/c'
_space_group_name_Hall '-P 2ybc'
loop_
_symmetry_equiv_pos_site_id
_symmetry_equiv_pos_as_xyz
 1 'x,y,z'
 2 '-x,-y,-z'
 3 '-x,-1/2+y,-1/2-z'
 4 'x,-1/2-y,-1/2+z'
loop_
_atom_site_label
_atom_site_type_symbol
_atom_site_fract_x
_atom_site_fract_y
_atom_site_fract_z
H1    H     0.35707327972410 0.17176176992762 0.02933251994334 
H2    H     0.56064120022156 0.21283008998200 0.86072607988858 
H3    H     0.72306420987339 0.37456590031659 0.88141106994487 
H4    H     0.66955756999881 0.50252552996914 0.07525136995892 
H5    H     0.51697662995069 0.57162223949448 0.27042846034042 
H6    H     0.32413954958385 0.02309339959186 0.14367436039114 
H7    H     0.29944863944423 0.55740483953241 0.43319714042816 
H8    H     0.09429183984519 0.45041107970389 0.52650427005269 
H9    H     0.93387106990293 0.27371033962655 0.53140330038511 
H10   H     0.16815305967715 0.84049252997721 0.16629788985829 
H11   H     0.88031148009098 0.06538958997090 0.45496159999238 
H12   H     0.94068385952468 0.86288254997383 0.31518521009735 
C1    C     0.42744324952816 0.23678011959121 0.04435051041920 
C2    C     0.39643532987581 0.30168747991257 0.15831327009428 
C3    C     0.27701069032903 0.27884799038463 0.26289163013467 
C4    C     0.54272931007239 0.26153028995077 0.94755777014081 
C5    C     0.48553635998312 0.40350121037502 0.16553229954517 
C6    C     0.19077108024901 0.16251168044740 0.27657848983922 
C7    C     0.24160340962578 0.37774063008458 0.35819749036341 
C8    C     0.63384535036582 0.35349751993920 0.95899238013941 
C9    C     0.60451114008295 0.42417003000412 0.06630977962521 
C10   C     0.06394194988931 0.16641655997943 0.37126224977115 
C11   C     0.44967033018045 0.49222688008024 0.26826782015030 
C12   C     0.22547874024514 0.03886236050328 0.20713346960977 
C13   C     0.32948196975293 0.48391917960236 0.35831960970873 
C14   C     0.11777868026386 0.37271575980013 0.45546052994026 
C15   C     0.02967122037244 0.27459948034802 0.45883375959836 
C16   C     0.13748466978103 0.93376770991098 0.22105358987038 
C17   C     0.97534133971069 0.05868335007549 0.38190308008328 
C18   C     0.00956570993320 0.94521250015123 0.30610328033030 
