data_stdin
_audit_creation_method 'critic2'
_audit_creation_date 2023-8-11
_chemical_formula_sum 'C18 H12'
_cell_formula_units_Z 4
_cell_length_a        19.9712623696
_cell_length_b         3.9101281764
_cell_length_c        15.7880836246
_cell_angle_alpha        89.9974
_cell_angle_beta        72.7859
_cell_angle_gamma        89.9766
_cell_volume          1177.667876
_space_group_crystal_system triclinic
_space_group_IT_number 2
_space_group_name_H-M_alt 'P-1'
_space_group_name_Hall '-P 1'
loop_
_symmetry_equiv_pos_site_id
_symmetry_equiv_pos_as_xyz
 1 'x,y,z'
 2 '-x,-y,-z'
loop_
_atom_site_label
_atom_site_type_symbol
_atom_site_fract_x
_atom_site_fract_y
_atom_site_fract_z
H1    H     0.80931553981534 0.86017646974672 0.56793519975172 
H2    H     0.19067548987423 0.36066914949495 0.93206240003934 
H3    H     0.93481096019043 0.79521440004715 0.54458183007828 
H4    H     0.06520432973876 0.29513468995450 0.95540162021584 
H5    H     0.01639734987083 0.70195102956053 0.39271758967003 
H6    H     0.98364463992678 0.20147258084631 0.10725001991413 
H7    H     0.96747395003140 0.64498213031663 0.26584752988140 
H8    H     0.03257630017173 0.14479625967185 0.23413071991519 
H9    H     0.87030812976978 0.60429565875627 0.20711650017774 
H10   H     0.12974867997281 0.10444150877264 0.29286054013779 
H11   H     0.75724386016711 0.27657537112491 0.57254963030231 
H12   H     0.24268789023302 0.77694898996962 0.92744952990440 
H13   H     0.74186500987524 0.57233996100202 0.23180784975534 
H14   H     0.25820247996048 0.07283894932613 0.26817043997853 
H15   H     0.62524008020815 0.59161998986345 0.32595723969186 
H16   H     0.37481342986831 0.09229291015080 0.17403501001376 
H17   H     0.53811756995491 0.71074467123075 0.47137563982950 
H18   H     0.46191174025231 0.21118914002737 0.02859146974548 
H19   H     0.66793922971787 0.44317715960444 0.70867519021958 
H20   H     0.33196228010097 0.94344568945171 0.79131406019781 
H21   H     0.50955175991994 0.94785916094478 0.61819623007889 
H22   H     0.49042767004798 0.44800553918994 0.88175261982117 
H23   H     0.54330614997712 0.26196989123152 0.73627955986827 
H24   H     0.45661782025956 0.76210338983748 0.76367977973582 
C1    C     0.84333618997392 0.83249736901360 0.50061260984008 
C2    C     0.15666426023287 0.33272363905194 0.99938072976853 
C3    C     0.81374427992198 0.82079026914189 0.42919958012989 
C4    C     0.18626112013702 0.32107253065219 0.07079167984501 
C5    C     0.73934694004898 0.85318079989235 0.43945135983141 
C6    C     0.26065204005803 0.35358261970123 0.06053843003343 
C7    C     0.91441792990739 0.79037667938402 0.48782004980948 
C8    C     0.08559746971862 0.29033722949877 0.01216443027437 
C9    C     0.86067034006071 0.73822234022265 0.34354667977606 
C10   C     0.13935510004556 0.23837612100928 0.15643843017313 
C11   C     0.68776539009849 0.98036124114964 0.51844241997915 
C12   C     0.31221156020863 0.48070986900227 0.98154070992720 
C13   C     0.71485286978378 0.73720288883052 0.36860378031062 
C14   C     0.28517203980243 0.23769661005589 0.13138507987066 
C15   C     0.96043506981545 0.73388373900327 0.40239639027252 
C16   C     0.03959538008546 0.23363616982198 0.09758082992635 
C17   C     0.93333616007947 0.70477652058223 0.33187767987165 
C18   C     0.06669879025797 0.20467492874586 0.16810138995175 
C19   C     0.61490982020482 0.91403832899601 0.53038479016365 
C20   C     0.38507739988889 0.41434089967170 0.96958365013542 
C21   C     0.83363598980677 0.66645298105939 0.27149859997446 
C22   C     0.16640607002110 0.16672607960404 0.22848458990922 
C23   C     0.70416872995781 0.18270528039018 0.58416995989423 
C24   C     0.29577506993575 0.68302414924952 0.91581762987879 
C25   C     0.76305790998769 0.65191084011622 0.28481083022516 
C26   C     0.23698787012257 0.15235381034883 0.21517484970905 
C27   C     0.64163976009992 0.69372219048252 0.38090423015016 
C28   C     0.35839507997398 0.19426847974099 0.11907951026111 
C29   C     0.59361372010640 0.76134112106845 0.46069960979450 
C30   C     0.40640576023341 0.26177098064914 0.03927323989197 
C31   C     0.65339741023580 0.28243649952345 0.66067181000945 
C32   C     0.34652854994164 0.78269258981684 0.83931123991679 
C33   C     0.56423862989998 0.01084338081118 0.61020463979561 
C34   C     0.43573125024463 0.51104400966590 0.88975368991625 
C35   C     0.58295984023831 0.18675958057531 0.67550254975050 
C36   C     0.41698062982023 0.68695539890185 0.82446458004171 
