data_stdin
_audit_creation_method 'critic2'
_audit_creation_date 2023-8-11
_chemical_formula_sum 'C18 H12'
_cell_formula_units_Z 16
_cell_length_a        28.9618120729
_cell_length_b        42.4032391059
_cell_length_c         3.8234725272
_cell_angle_alpha        90.0008
_cell_angle_beta        89.9918
_cell_angle_gamma        90.0084
_cell_volume          4695.509557
_space_group_crystal_system triclinic
_space_group_IT_number 1
_space_group_name_H-M_alt 'P1'
_space_group_name_Hall 'P 1'
loop_
_symmetry_equiv_pos_site_id
_symmetry_equiv_pos_as_xyz
 1 'x,y,z'
 2 'x,-1/2+y,-1/2+z'
 3 '-1/2+x,y,-1/2+z'
 4 '-1/2+x,-1/2+y,z'
loop_
_atom_site_label
_atom_site_type_symbol
_atom_site_fract_x
_atom_site_fract_y
_atom_site_fract_z
H1    H     0.40495832008344 0.40390164010488 0.49515516050582 
H2    H     0.59505726987465 0.59610111997150 0.49487874069041 
H3    H     0.84506778017019 0.65389069991528 0.74522021980303 
H4    H     0.65494230017094 0.84610850992595 0.74539128071028 
H5    H     0.46164862016719 0.44550950011263 0.58819384925633 
H6    H     0.53836416001264 0.55449110998943 0.58772163039364 
H7    H     0.78838349009894 0.69549484992388 0.83818836077546 
H8    H     0.71162220010951 0.80450538999827 0.83841829052896 
H9    H     0.43756879996998 0.49784179010881 0.83079648084489 
H10   H     0.56242750985245 0.50215902000184 0.83042022948754 
H11   H     0.81246786991417 0.74782903997198 0.08081828018789 
H12   H     0.68752216008363 0.75216581001799 0.08083670909593 
H13   H     0.35425687983838 0.50837734008164 0.93134634002130 
H14   H     0.64572774998935 0.49163033990559 0.93131559109122 
H15   H     0.89577295007562 0.75837044991702 0.18150616042272 
H16   H     0.60420938013822 0.74161847998034 0.18126652033625 
H17   H     0.27413123011973 0.49263735002100 0.89097704078853 
H18   H     0.72585488013590 0.50737593005119 0.89127424938530 
H19   H     0.97590262012021 0.74263644007088 0.14113140943733 
H20   H     0.52408302002361 0.75735116994187 0.14078489966885 
H21   H     0.38780551984500 0.37332764991344 0.86889843896653 
H22   H     0.61218743001408 0.62667357996207 0.86877246949412 
H23   H     0.86220999007825 0.62331642997353 0.11899460985826 
H24   H     0.63778208998089 0.87667648998939 0.11909092970929 
H25   H     0.21538377988183 0.45371596992427 0.70141181051841 
H26   H     0.78461877985250 0.54629483003270 0.70174379122774 
H27   H     0.03464332999162 0.70372621994021 0.95145184008180 
H28   H     0.46535263002757 0.79626572000955 0.95111792110643 
H29   H     0.19484437007098 0.40330433003788 0.46906456039681 
H30   H     0.80516943983434 0.59670323000225 0.46916805039707 
H31   H     0.05517160008367 0.65332434010491 0.71876016936722 
H32   H     0.44483452987691 0.84667494994551 0.71869876012879 
H33   H     0.21474334009728 0.34815701003162 0.31096471901525 
H34   H     0.78526668007555 0.65184392990364 0.31082296960347 
H35   H     0.03525563010909 0.59818169009653 0.56041835877420 
H36   H     0.46475229990151 0.90182482997951 0.56068154020533 
H37   H     0.40106776992961 0.31658637994331 0.82598289886464 
H38   H     0.59891986995205 0.68341433002998 0.82577397963756 
H39   H     0.84893937991649 0.56657289006243 0.07603535088166 
H40   H     0.65106367995343 0.93341799006627 0.07613523976585 
H41   H     0.26758253995565 0.30428312992983 0.35259156892365 
H42   H     0.73242367990298 0.69571793994937 0.35239993894487 
H43   H     0.98241670993864 0.55429805998598 0.60221855089683 
H44   H     0.51759045005349 0.94570569997430 0.60257994974837 
H45   H     0.34202273005401 0.28141105993905 0.55503289927757 
H46   H     0.65797657000284 0.71858928000359 0.55479708897879 
H47   H     0.90797510000491 0.53141087991246 0.80490101055844 
H48   H     0.59203574998405 0.96858640988767 0.80511717030996 
C1    C     0.39358565012526 0.42601064008380 0.60899414892632 
C2    C     0.60642236001117 0.57399290003585 0.60875491922286 
C3    C     0.85643924987135 0.67600169990261 0.85905595910466 
C4    C     0.64356287016764 0.82399558999344 0.85915241065711 
C5    C     0.34616821991409 0.43047752999337 0.68599180074856 
C6    C     0.65383322003477 0.56952780002737 0.68589981906618 
C7    C     0.90385442998667 0.68047378994773 0.93606377965243 
C8    C     0.59614196989512 0.81952125995072 0.93604630071499 
C9    C     0.31135334983273 0.40633897989744 0.63787995958180 
C10   C     0.68865119010548 0.59366361005455 0.63782231082469 
C11   C     0.93866461014854 0.65634043989509 0.88786149039471 
C12   C     0.56133394009446 0.84365568001943 0.88787185055123 
C13   C     0.42570587005077 0.44975479993667 0.65750024030345 
C14   C     0.57430028013541 0.55024751992883 0.65715900111243 
C15   C     0.82432378001560 0.69974305006135 0.90752968102408 
C16   C     0.67567632984524 0.80025465995856 0.90765095984052 
C17   C     0.33213322011024 0.46156977007946 0.78800331932268 
C18   C     0.66786152993848 0.53843737989732 0.78800411067169 
C19   C     0.91789368011976 0.71156603006047 0.03812137902460 
C20   C     0.58209686007175 0.78842615998788 0.03798339941775 
C21   C     0.32097699008894 0.37287363004685 0.61407975011600 
C22   C     0.67902599013172 0.62713052989623 0.61393757996353 
C23   C     0.92903294014794 0.62287565988247 0.86398253106625 
C24   C     0.57096604999097 0.87712140995858 0.86411145045484 
C25   C     0.26460585991600 0.41610274002821 0.61405386113263 
C26   C     0.73539879003616 0.58390160011245 0.61412073106964 
C27   C     0.98541461008315 0.66610972006717 0.86399561944245 
C28   C     0.51458553010745 0.83388589993314 0.86391281060269 
C29   C     0.41207868992184 0.47934018998682 0.78825660914863 
C30   C     0.58791784009708 0.52066318000447 0.78797357890186 
C31   C     0.83795382998111 0.72932892989013 0.03831285876205 
C32   C     0.66203796985011 0.77066570007933 0.03831976101661 
C33   C     0.36581174008645 0.48513259000764 0.84676203020159 
C34   C     0.63417908007225 0.51487359992092 0.84666308102818 
C35   C     0.88421910013343 0.73512488011687 0.09688187876249 
C36   C     0.61576832987493 0.76486684003046 0.09675225911210 
C37   C     0.28566864000801 0.35209697010551 0.48744988027574 
C38   C     0.71433211007499 0.64790300997399 0.48729067013718 
C39   C     0.96433714987358 0.60210565998358 0.73718302047219 
C40   C     0.53566561016847 0.89789515003270 0.73739591024969 
C41   C     0.28425191009373 0.46903808994548 0.80904587013841 
C42   C     0.71574105008810 0.53097211990925 0.80922776960741 
C43   C     0.96577655991295 0.71903781992394 0.05917063954535 
C44   C     0.53421295014508 0.78095226991392 0.05891349986271 
C45   C     0.36222850005219 0.35879352001305 0.73855843044703 
C46   C     0.63776530995833 0.64120864990922 0.73840977930906 
C47   C     0.88778248014739 0.60878803003072 0.98854745985336 
C48   C     0.61221414008182 0.89120657008188 0.98867480030698 
C49   C     0.25191150003020 0.44750408992195 0.70715779093874 
C50   C     0.74808978995374 0.55250437004764 0.70736296983768 
C51   C     0.99811416984863 0.69750958005858 0.95720435111866 
C52   C     0.50188132999014 0.80248262008176 0.95696599054663 
C53   C     0.23006147993955 0.39462869988669 0.49612444058070 
C54   C     0.76994882005908 0.60537661999687 0.49615627070018 
C55   C     0.01995267987346 0.64464430994717 0.74588060993788 
C56   C     0.48005166002445 0.85535486998133 0.74588468953923 
C57   C     0.24075016017018 0.36415229007377 0.41505235976032 
C58   C     0.75926024012036 0.63584791996660 0.41494907113819 
C59   C     0.00925601990891 0.61417004000092 0.66468251121437 
C60   C     0.49074946992756 0.88583300006604 0.66485751997187 
C61   C     0.36948020987590 0.32661202995193 0.71857286997968 
C62   C     0.63051329004340 0.67338909991839 0.71838063100253 
C63   C     0.88052631002250 0.57660485999569 0.96853909999962 
C64   C     0.61947566991182 0.92338935998245 0.96868227943370 
C65   C     0.29464975997264 0.31940177011206 0.45815744911053 
C66   C     0.70535358016149 0.68059831991753 0.45795682025724 
C67   C     0.95535167008108 0.56941060993255 0.70787623078793 
C68   C     0.54465368983835 0.93059045006389 0.70815669929135 
C69   C     0.33596643996729 0.30669646999457 0.56966602052089 
C70   C     0.66403196005278 0.69330410997614 0.56945120883136 
C71   C     0.91403439989114 0.55669711994483 0.81950994937230 
C72   C     0.58597220001590 0.94330055001644 0.81972679024866 
