data_stdin
_audit_creation_method 'critic2'
_audit_creation_date 2023-8-11
_chemical_formula_sum 'C18 H12'
_cell_formula_units_Z 4
_cell_length_a        20.9843915846
_cell_length_b        14.8290650602
_cell_length_c         3.8149550264
_cell_angle_alpha        89.9984
_cell_angle_beta        90.0153
_cell_angle_gamma        89.9990
_cell_volume          1187.133496
_space_group_crystal_system orthorhombic
_space_group_IT_number 33
_space_group_name_H-M_alt 'Pna2_1'
_space_group_name_Hall 'P 2c -2n'
loop_
_symmetry_equiv_pos_site_id
_symmetry_equiv_pos_as_xyz
 1 'x,y,z'
 2 '-x,-y,-1/2+z'
 3 '-1/2-x,-1/2+y,-1/2+z'
 4 '-1/2+x,-1/2-y,z'
loop_
_atom_site_label
_atom_site_type_symbol
_atom_site_fract_x
_atom_site_fract_y
_atom_site_fract_z
H1    H     0.75419266994303 0.12809644995231 0.98853146060066 
H2    H     0.86664803011387 0.09811120984417 0.10165222015165 
H3    H     0.93707628992582 0.21880410996439 0.34722921880645 
H4    H     0.89435241983295 0.37381627972335 0.41547624977906 
H5    H     0.80950460008952 0.48314038003549 0.32712802014812 
H6    H     0.68956260991562 0.11441615983138 0.37038646936209 
H7    H     0.70118022995952 0.51891946016666 0.10550897870733 
H8    H     0.59877500990551 0.47292170983056 0.89130451025705 
H9    H     0.51846406000575 0.35458497021974 0.76835032910223 
H10   H     0.60334415011375 0.00475927006033 0.34285787127554 
H11   H     0.48304321014174 0.19950612003941 0.83299173006401 
H12   H     0.49968049981192 0.04453057984022 0.05678146904386 
C1    C     0.78335985997922 0.18122264000553 0.10034345072462 
C2    C     0.75614816015413 0.26726939026473 0.16105717108445 
C3    C     0.68949154986059 0.28765284986737 0.10311452092925 
C4    C     0.84719278012010 0.16442654014595 0.16190155120455 
C5    C     0.79873050999007 0.33873784015192 0.25682521952917 
C6    C     0.63942695986178 0.22055223032408 0.09286852931421 
C7    C     0.67210446012357 0.37933487018579 0.05733424051608 
C8    C     0.88711799000933 0.23278065010662 0.29280546937112 
C9    C     0.86321236994023 0.31890644977969 0.33328469034699 
C10   C     0.57784114994420 0.24536560998244 0.96140718042080 
C11   C     0.77664694003301 0.42965993968948 0.25168308072084 
C12   C     0.64600868983360 0.13259805013475 0.23433659888302 
C13   C     0.71669318976893 0.44919265994212 0.13498826897494 
C14   C     0.60977340011512 0.40205544989265 0.93650894042237 
C15   C     0.56519772979817 0.33701670024734 0.87275745930508 
C16   C     0.59673886022172 0.07078340980738 0.22291952020106 
C17   C     0.52899265979931 0.17987280031881 0.94121042061691 
C18   C     0.53815201993608 0.09362701996735 0.06699213077140 
