data_stdin
_audit_creation_method 'critic2'
_audit_creation_date 2023-8-11
_chemical_formula_sum 'C18 H12'
_cell_formula_units_Z 16
_cell_length_a        23.2613046089
_cell_length_b        39.5974094439
_cell_length_c         5.2032373590
_cell_angle_alpha        90.0081
_cell_angle_beta        89.9853
_cell_angle_gamma        90.0005
_cell_volume          4792.636179
_space_group_crystal_system orthorhombic
_space_group_IT_number 43
_space_group_name_H-M_alt 'Fdd2'
_space_group_name_Hall 'F 2 -2d'
loop_
_symmetry_equiv_pos_site_id
_symmetry_equiv_pos_as_xyz
 1 'x,y,z'
 2 '-x,-1/2-y,-1/2+z'
 3 '-1/4-x,-1/4+y,-3/4+z'
 4 '-1/4+x,-1/4-y,-3/4+z'
 5 'x,-1/2+y,-1/2+z'
 6 '-x,-y,z'
 7 '-1/4-x,-3/4+y,-1/4+z'
 8 '-1/4+x,-3/4-y,-1/4+z'
 9 '-1/2+x,y,-1/2+z'
 10 '-1/2-x,-1/2-y,z'
 11 '-3/4-x,-1/4+y,-1/4+z'
 12 '-3/4+x,-1/4-y,-1/4+z'
 13 '-1/2+x,-1/2+y,z'
 14 '-1/2-x,-y,-1/2+z'
 15 '-3/4-x,-3/4+y,-3/4+z'
 16 '-3/4+x,-3/4-y,-3/4+z'
loop_
_atom_site_label
_atom_site_type_symbol
_atom_site_fract_x
_atom_site_fract_y
_atom_site_fract_z
H1    H     0.53211267649161 0.52096563390286 0.35981447918034 
H2    H     0.46804903026745 0.53347483125183 0.99668257511807 
H3    H     0.48794671183990 0.58253197878083 0.71014732793896 
H4    H     0.56784770138595 0.62176267244824 0.81848887906875 
H5    H     0.64654809113264 0.63869329820310 0.09466286537462 
H6    H     0.59605131568186 0.49050955643848 0.30382179949985 
H7    H     0.70892224255391 0.62844232214615 0.47049557603428 
H8    H     0.74022374404894 0.59433843167905 0.81944893355409 
H9    H     0.73915885501294 0.54081123222688 0.06646929895579 
H10   H     0.60908701275911 0.43606446210536 0.50960300286370 
H11   H     0.71204636246023 0.48244235625130 0.09859220615934 
H12   H     0.66512252074670 0.43152529306863 0.92338623011608 
C1    C     0.54251290819514 0.54178856897111 0.23256494615940 
C2    C     0.59241802398181 0.56135132654176 0.28189601788593 
C3    C     0.63534096872769 0.55291503188087 0.47363215005458 
C4    C     0.50549243740606 0.54932112386743 0.03220665957066 
C5    C     0.59846035990178 0.59207336990506 0.13819250619924 
C6    C     0.64184003054975 0.51982314561716 0.59020080867579 
C7    C     0.67453877295441 0.57859547594522 0.54958238315925 
C8    C     0.51584997164127 0.57745296102826 0.87348696763379 
C9    C     0.56068100332237 0.59897073799336 0.93161448310154 
C10   C     0.67842879602888 0.51624658637681 0.81063361428541 
C11   C     0.64202973873952 0.61566598809476 0.20713093508143 
C12   C     0.61830440743739 0.48969154765479 0.48656418542407 
C13   C     0.67687523600958 0.60981945929235 0.41349164621031 
C14   C     0.71214104206810 0.57360416921397 0.76289900475148 
C15   C     0.71193734352547 0.54410154318146 0.89820471172633 
C16   C     0.62660640088476 0.45854846668228 0.60188556798900 
C17   C     0.68467314025452 0.48437076942257 0.92987551672761 
C18   C     0.65873742136397 0.45585775030766 0.83013266068804 
