data_stdin
_audit_creation_method 'critic2'
_audit_creation_date 2023-8-11
_chemical_formula_sum 'C18 H12'
_cell_formula_units_Z 4
_cell_length_a        12.8621821384
_cell_length_b        11.9193949901
_cell_length_c         8.3206485756
_cell_angle_alpha        89.9992
_cell_angle_beta        68.4588
_cell_angle_gamma        90.0005
_cell_volume          1186.535550
_space_group_crystal_system monoclinic
_space_group_IT_number 14
_space_group_name_H-M_alt 'P2_1/c'
_space_group_name_Hall '-P 2ybc'
loop_
_symmetry_equiv_pos_site_id
_symmetry_equiv_pos_as_xyz
 1 'x,y,z'
 2 '-x,-y,-z'
 3 '-x,-1/2+y,-1/2-z'
 4 'x,-1/2-y,-1/2+z'
loop_
_atom_site_label
_atom_site_type_symbol
_atom_site_fract_x
_atom_site_fract_y
_atom_site_fract_z
H1    H     0.19124742966933 0.04393273036896 0.80366472984264 
H2    H     0.31556229959513 0.18541714039895 0.85109103020832 
H3    H     0.48782413039662 0.24444167012598 0.61173555979245 
H4    H     0.54163819991309 0.15018509013440 0.32533644054088 
H5    H     0.50935660004651 0.00969974027781 0.14030528026374 
H6    H     0.06675050007939 0.08731614995273 0.73172313051379 
H7    H     0.39834883004224 0.84942207990461 0.10079903048168 
H8    H     0.24034795004211 0.72756327958668 0.20267370981915 
H9    H     0.04923990031422 0.68439565011524 0.40695618015732 
H10   H     0.87066608997677 0.05491269977429 0.90182835981197 
H11   H     0.88150419026330 0.74389564995589 0.63490490010970 
H12   H     0.77495617007722 0.88012473970042 0.85962395023217 
C1    C     0.26366343012275 0.07167759036383 0.69466439042138 
C2    C     0.28617465976357 0.02319142985014 0.52946079947266 
C3    C     0.21334752993902 0.94254077987432 0.49264941957803 
C4    C     0.33461318964690 0.15003620026091 0.72272099055624 
C5    C     0.39158160981292 0.05011027019397 0.39688090938966 
C6    C     0.09572209962798 0.92786827989734 0.59597920045104 
C7    C     0.26026082036511 0.87441280997616 0.34313633988014 
C8    C     0.43289024987251 0.18308508982087 0.58713746945731 
C9    C     0.46183886998333 0.13170573967006 0.42809512010525 
C10   C     0.03812826994962 0.83217413995117 0.56469985942440 
C11   C     0.42842512020278 0.98923141998897 0.23850018961483 
C12   C     0.03033004035176 0.00750092969724 0.71817259992817 
C13   C     0.36726195966026 0.90091795025882 0.21689957019346 
C14   C     0.20021376982622 0.78028768009089 0.31566076945872 
C15   C     0.09443108007619 0.75691824999909 0.42723209022464 
C16   C     0.91799343015775 0.99002202987400 0.81293790983371 
C17   C     0.92340526964980 0.81617825039990 0.66353216019075 
C18   C     0.86394236014054 0.89253953967595 0.78804449946695 
