data_stdin
_audit_creation_method 'critic2'
_audit_creation_date 2023-8-11
_chemical_formula_sum 'C18 H12'
_cell_formula_units_Z 4
_cell_length_a         7.0550788733
_cell_length_b        11.1604616611
_cell_length_c        15.5762599074
_cell_angle_alpha        90.0010
_cell_angle_beta        78.8829
_cell_angle_gamma        90.0001
_cell_volume          1203.428416
_space_group_crystal_system monoclinic
_space_group_IT_number 14
_space_group_name_H-M_alt 'P2_1/c'
_space_group_name_Hall '-P 2ybc'
loop_
_symmetry_equiv_pos_site_id
_symmetry_equiv_pos_as_xyz
 1 'x,y,z'
 2 '-x,-y,-z'
 3 '-x,-1/2+y,-1/2-z'
 4 'x,-1/2-y,-1/2+z'
loop_
_atom_site_label
_atom_site_type_symbol
_atom_site_fract_x
_atom_site_fract_y
_atom_site_fract_z
H1    H     0.63745464993318 0.11796402973515 0.24543873979515 
H2    H     0.58901458021640 0.93461405032748 0.33329526020741 
H3    H     0.64835348012911 0.73437820032959 0.26265795002949 
H4    H     0.72546322076020 0.72129038979007 0.10003447986057 
H5    H     0.75954876987576 0.81385810006392 0.95795695025706 
H6    H     0.90020742958921 0.19877294036805 0.20988230010282 
H7    H     0.73819232053571 0.99576526998586 0.86883000022315 
H8    H     0.70629048986703 0.20779536980240 0.85602429991793 
H9    H     0.71155649035957 0.41363164023805 0.91603075974078 
H10   H     0.96376217999917 0.40181955969235 0.25555454988616 
H11   H     0.78241174034626 0.54600047963292 0.02838720032104 
H12   H     0.89303919022884 0.57893921956581 0.16895691017201 
C1    C     0.66722084056410 0.03197242995128 0.21295958007933 
C2    C     0.72287873003318 0.02798486020754 0.12039973978005 
C3    C     0.75027255024135 0.13353582010351 0.06528522972012 
C4    C     0.63837670956455 0.92856029008165 0.26280101031319 
C5    C     0.73411618065373 0.91217809032759 0.07990381999710 
C6    C     0.78813044974043 0.25231764987239 0.09540234031439 
C7    C     0.73972716023076 0.11956646967350 0.97581160004032 
C8    C     0.66775615978169 0.81523775036994 0.22276406977916 
C9    C     0.71309454010357 0.80797907981270 0.13260848026703 
C10   C     0.76765795960717 0.35386482025817 0.04135758994056 
C11   C     0.75094078943838 0.90267635987416 0.98747719996403 
C12   C     0.86295184017345 0.27415503031668 0.17220852970371 
C13   C     0.74227991985524 0.00284811970336 0.93817831994490 
C14   C     0.72522645054740 0.22233244008001 0.92292759969403 
C15   C     0.72821358960394 0.33555614035409 0.95590668984005 
C16   C     0.90055342030947 0.38904733973881 0.19782348028220 
C17   C     0.80038512014457 0.47072703003581 0.07067825032739 
C18   C     0.86368390011616 0.48877301003142 0.14824830025402 
