data_stdin
_audit_creation_method 'critic2'
_audit_creation_date 2023-8-11
_chemical_formula_sum 'C18 H12'
_cell_formula_units_Z 4
_cell_length_a        11.4163022216
_cell_length_b         7.1504513530
_cell_length_c        16.0707941060
_cell_angle_alpha        90.0017
_cell_angle_beta        65.7976
_cell_angle_gamma        90.0009
_cell_volume          1196.575119
_space_group_crystal_system monoclinic
_space_group_IT_number 14
_space_group_name_H-M_alt 'P2_1/c'
_space_group_name_Hall '-P 2ybc'
loop_
_symmetry_equiv_pos_site_id
_symmetry_equiv_pos_as_xyz
 1 'x,y,z'
 2 '-x,-y,-z'
 3 '-x,-1/2+y,-1/2-z'
 4 'x,-1/2-y,-1/2+z'
loop_
_atom_site_label
_atom_site_type_symbol
_atom_site_fract_x
_atom_site_fract_y
_atom_site_fract_z
H1    H     0.05442705968146 0.67835003951985 0.76147016010651 
H2    H     0.84486018982760 0.58252478029986 0.87792775996781 
H3    H     0.66381327054147 0.50974800995325 0.83422902975050 
H4    H     0.68949046992022 0.57085784047983 0.67562699024120 
H5    H     0.81585685021325 0.68887372975881 0.52246930977452 
H6    H     0.18237310009511 0.48306564950644 0.69582661011526 
H7    H     0.02037772993679 0.81677378990750 0.40859800991851 
H8    H     0.23972239983128 0.89772256057371 0.36061544996664 
H9    H     0.44067867025444 0.90784686013362 0.38487541013259 
H10   H     0.38803209986051 0.46428718000793 0.70776218023966 
H11   H     0.56107667003557 0.81729227037422 0.47243177974739 
H12   H     0.57812932017561 0.64391644942266 0.60013644978439 
C1    C     0.97729666031574 0.64487944006194 0.74103884989533 
C2    C     0.99929690023607 0.66220983006002 0.64784479006333 
C3    C     0.12360186039552 0.70346116941637 0.57540989974974 
C4    C     0.85848804965941 0.59484561056244 0.80702430015666 
C5    C     0.88929917005077 0.64894016012536 0.62641315982374 
C6    C     0.24525707979851 0.67942828943042 0.58273330014821 
C7    C     0.12626473048911 0.77154130930235 0.49165487985631 
C8    C     0.75510729012525 0.55890616932234 0.78301412966535 
C9    C     0.77003664999212 0.59053979945740 0.69450980971150 
C10   C     0.35873378997355 0.76228040931723 0.51477772008355 
C11   C     0.90005737966780 0.69997760005344 0.53784862020136 
C12   C     0.26156778010014 0.56778980008428 0.65028906026684 
C13   C     0.01310040037618 0.76811127983129 0.47467399983788 
C14   C     0.24237289983234 0.84318982937604 0.42310853025439 
C15   C     0.35340355013124 0.84682084988810 0.43598634991371 
C16   C     0.37874313027822 0.55523825962420 0.65641159025211 
C17   C     0.47659215954120 0.75150142015570 0.52412003006602 
C18   C     0.48627330021367 0.65326701027283 0.59493296975892 
