data_stdin
_audit_creation_method 'critic2'
_audit_creation_date 2023-8-11
_chemical_formula_sum 'C18 H12'
_cell_formula_units_Z 4
_cell_length_a         9.9026613426
_cell_length_b         5.1222835672
_cell_length_c        23.5775446487
_cell_angle_alpha        89.9972
_cell_angle_beta        83.6454
_cell_angle_gamma        90.0008
_cell_volume          1188.605033
_space_group_crystal_system monoclinic
_space_group_IT_number 14
_space_group_name_H-M_alt 'P2_1/c'
_space_group_name_Hall '-P 2ybc'
loop_
_symmetry_equiv_pos_site_id
_symmetry_equiv_pos_as_xyz
 1 'x,y,z'
 2 '-x,-y,-z'
 3 '-x,-1/2+y,-1/2-z'
 4 'x,-1/2-y,-1/2+z'
loop_
_atom_site_label
_atom_site_type_symbol
_atom_site_fract_x
_atom_site_fract_y
_atom_site_fract_z
H1    H     0.04902059952451 0.62714319972764 0.46829553998895 
H2    H     0.12885726031594 0.95899837987117 0.53010970986693 
H3    H     0.35198982012338 0.18515720955621 0.50331412001926 
H4    H     0.50014441998217 0.03383001021883 0.41843015991776 
H5    H     0.54726763993358 0.74049108031010 0.33762683979364 
H6    H     0.93855537975144 0.71299780941395 0.40906780992610 
H7    H     0.47845138027335 0.36730181969606 0.28006182020950 
H8    H     0.31744787979485 0.04761347053046 0.25825640005313 
H9    H     0.08452433975191 0.87012723933960 0.26738383012057 
H10   H     0.70524481050370 0.57297794905632 0.40416783986129 
H11   H     0.84705200001820 0.92185397997644 0.29871691983089 
H12   H     0.65535247031747 0.17373835941514 0.34967662012067 
C1    C     0.14438080949667 0.72449049931481 0.45479508006417 
C2    C     0.22094920003559 0.64915340942144 0.40299048995184 
C3    C     0.17425748016888 0.46292429946928 0.36310929016458 
C4    C     0.19048395999262 0.91141904075331 0.49035617982719 
C5    C     0.35537321955911 0.75560342078858 0.39198349991438 
C6    C     0.03341668973933 0.38646255021933 0.36163388988950 
C7    C     0.27263486996254 0.35128586961993 0.32172513988746 
C8    C     0.31708382955658 0.03307045929666 0.47618763021051 
C9    C     0.39905373007431 0.95072544916085 0.42835950008162 
C10   C     0.00296917975480 0.16677103938670 0.32745065989390 
C11   C     0.44562623975337 0.65722916990050 0.34559103014007 
C12   C     0.92108347959038 0.53048227062642 0.38788681011953 
C13   C     0.40741358972765 0.45352347994791 0.31352732998926 
C14   C     0.23797921050732 0.13631944952221 0.28766270981776 
C15   C     0.10918531990755 0.03831116074843 0.29240757994334 
C16   C     0.78838013968354 0.45464824990452 0.38395947992904 
C17   C     0.86638000955916 0.08987791078885 0.32494966995709 
C18   C     0.76016598037683 0.22997945989645 0.35307635005494 
