data_stdin
_audit_creation_method 'critic2'
_audit_creation_date 2023-8-11
_chemical_formula_sum 'C18 H12'
_cell_formula_units_Z 8
_cell_length_a        20.8417601770
_cell_length_b         3.8402565759
_cell_length_c        29.9010277988
_cell_angle_alpha        90.0395
_cell_angle_beta        78.1906
_cell_angle_gamma        89.9590
_cell_volume          2342.553339
_space_group_crystal_system triclinic
_space_group_IT_number 2
_space_group_name_H-M_alt 'P-1'
_space_group_name_Hall '-P 1'
loop_
_symmetry_equiv_pos_site_id
_symmetry_equiv_pos_as_xyz
 1 'x,y,z'
 2 '-x,-y,-z'
 3 '-1/2+x,-1/2+y,z'
 4 '-1/2-x,-1/2-y,-z'
loop_
_atom_site_label
_atom_site_type_symbol
_atom_site_fract_x
_atom_site_fract_y
_atom_site_fract_z
H1    H     0.26380361531698 0.10285023083247 0.57668988579331 
H2    H     0.73612337820292 0.10303051985853 0.92335488704972 
H3    H     0.36846414996818 0.91115361527589 0.59227269572568 
H4    H     0.63151720400287 0.91146121777466 0.90773795766901 
H5    H     0.37379773252341 0.60965628302994 0.66573777540513 
H6    H     0.62626314027437 0.61002843034586 0.83420296270858 
H7    H     0.27188401178812 0.54802039024499 0.72496588152484 
H8    H     0.72818782988293 0.54821620384446 0.77496373465660 
H9    H     0.15611514131860 0.64949280724345 0.75226509588467 
H10   H     0.84393690643788 0.64954604928879 0.74768540395475 
H11   H     0.21057502437165 0.78883903356656 0.54681609986802 
H12   H     0.78940758663967 0.78907547466777 0.95316440216366 
H13   H     0.05326079564209 0.92838776453204 0.74168347913764 
H14   H     0.94672186264545 0.92807141818088 0.75832906768670 
H15   H     0.99051580036867 0.24076135992392 0.69556046373692 
H16   H     0.00939156229896 0.24029280538733 0.80452709847805 
H17   H     0.97227529774613 0.42214429776233 0.61975439423510 
H18   H     0.02761018194087 0.42122028155869 0.88038470212057 
H19   H     0.18262239451063 0.88928483502969 0.47254767242012 
H20   H     0.81734569043808 0.88907607513589 0.02744821730869 
H21   H     0.00236672417277 0.37942920450452 0.53749665239374 
H22   H     0.99751413127447 0.37860215382269 0.96262281138566 
H23   H     0.07898658219156 0.19130624352798 0.46668592533072 
H24   H     0.92093318113643 0.19068581433797 0.03338737179064 
C1    C     0.26409635841625 0.96141780676181 0.60806263152680 
C2    C     0.73586637030869 0.96160534784297 0.89195275082710 
C3    C     0.20431433536623 0.90560864966276 0.63966579974006 
C4    C     0.79566550849424 0.90570085624807 0.86033725024175 
C5    C     0.14049830700629 0.00182606662655 0.63128963300675 
C6    C     0.85945625367116 0.00177687452217 0.86873594087765 
C7    C     0.32371365238900 0.85977706743509 0.61738938302777 
C8    C     0.67627905096840 0.86001513335248 0.88260786091958 
C9    C     0.20890510836809 0.76881701975575 0.68352493775835 
C10   C     0.79111338879906 0.76890855770050 0.81645140676221 
C11   C     0.12615448423844 0.05708531459477 0.58638983617659 
C12   C     0.87378498815469 0.05695230179791 0.91365050907118 
C13   C     0.08823699917930 0.03770371254267 0.66973747081175 
C14   C     0.91171165668573 0.03753063422313 0.83029708436010 
C15   C     0.32695506479400 0.69706544297133 0.65900537986851 
C16   C     0.67308324175026 0.69731953304229 0.84095651104743 
C17   C     0.27020413039944 0.65857410008687 0.69172519345128 
C18   C     0.72984485132218 0.65875689010011 0.80822705528678 
C19   C     0.06453865285304 0.20964954886435 0.58273349925414 
C20   C     0.93537503367059 0.20917002484217 0.91734444986965 
C21   C     0.15228267951074 0.76314109393679 0.71953046690489 
C22   C     0.84774155213114 0.76305633408980 0.78044641043509 
C23   C     0.16714156003518 0.94006996031091 0.54529535279832 
C24   C     0.83281661022970 0.94007906095365 0.95471886996063 
C25   C     0.09536485551701 0.91307318179878 0.71339081289933 
C26   C     0.90461879487075 0.91288895600845 0.78661739723944 
C27   C     0.02787483642377 0.19374299582925 0.66486699008795 
C28   C     0.97203984570652 0.19334658555162 0.83520665667419 
C29   C     0.01739952635597 0.29071178369888 0.62306492189996 
C30   C     0.98250109135410 0.29009879309493 0.87703346631046 
C31   C     0.15073374241490 0.98998364535460 0.50324232905559 
C32   C     0.84921779566181 0.98976160215942 0.99678332380945 
C33   C     0.04930145462006 0.26139868570956 0.53926628296646 
C34   C     0.95060266432458 0.26076333401138 0.96082509954036 
C35   C     0.09184530599141 0.15695332819787 0.49992433455544 
C36   C     0.90807695915141 0.15643922841238 0.00014204669476 
