data_stdin
_audit_creation_method 'critic2'
_audit_creation_date 2023-8-11
_chemical_formula_sum 'C18 H12'
_cell_formula_units_Z 4
_cell_length_a        14.7755138329
_cell_length_b         3.9271123024
_cell_length_c        21.0706960644
_cell_angle_alpha        89.9744
_cell_angle_beta        71.6243
_cell_angle_gamma        89.9980
_cell_volume          1160.287132
_space_group_crystal_system triclinic
_space_group_IT_number 2
_space_group_name_H-M_alt 'P-1'
_space_group_name_Hall '-P 1'
loop_
_symmetry_equiv_pos_site_id
_symmetry_equiv_pos_as_xyz
 1 'x,y,z'
 2 '-x,-y,-z'
loop_
_atom_site_label
_atom_site_type_symbol
_atom_site_fract_x
_atom_site_fract_y
_atom_site_fract_z
H1    H     0.11146130007638 0.01791314093032 0.00662456980557 
H2    H     0.88853051013993 0.51788235978209 0.49340821981450 
H3    H     0.09481582023408 0.97171392001021 0.12466021981190 
H4    H     0.90521689978207 0.47158261960568 0.37537309013611 
H5    H     0.23712732992273 0.87617008001777 0.16197619012466 
H6    H     0.76294239979654 0.37559306094713 0.33804498024573 
H7    H     0.39543158979844 0.78340471894618 0.07652794003211 
H8    H     0.60460642033998 0.28296017998921 0.42350244980948 
H9    H     0.49420932970772 0.72974153985685 0.96225635018766 
H10   H     0.50577479992750 0.22978109929086 0.53775685000850 
H11   H     0.12361213022525 0.42720359944483 0.95806951975081 
H12   H     0.87637124965988 0.92740191082445 0.54186968005627 
H13   H     0.51211271964935 0.72062002990169 0.84131034024412 
H14   H     0.48782389035330 0.22064448111423 0.65871110991766 
H15   H     0.44921839026125 0.77604277005718 0.75176767984408 
H16   H     0.55067950004224 0.27612643890754 0.74826160976472 
H17   H     0.31970471976864 0.93234715070739 0.70607382003176 
H18   H     0.68018944003410 0.43228335000292 0.79394591978191 
H19   H     0.00213599967671 0.60520737885133 0.90923589009922 
H20   H     0.99783510982643 0.10539205982708 0.59069802983182 
H21   H     0.16258094979338 0.15621559117233 0.72150896001657 
H22   H     0.83734529032759 0.65608402967834 0.77848256975258 
H23   H     0.01672119008146 0.45619638057320 0.79116124025056 
H24   H     0.98322012996731 0.95617403053172 0.70879250005572 
C1    C     0.17553866973217 0.99015283987338 0.02081300003045 
C2    C     0.82445183995820 0.49023316082752 0.47920385006654 
C3    C     0.26580604032112 0.97063542124133 0.97055445991220 
C4    C     0.73416892009088 0.47081926106895 0.52945159995309 
C5    C     0.28038829957116 0.01066661960835 0.89949690021263 
C6    C     0.71955851032095 0.51089213080367 0.60050511992205 
C7    C     0.16563090004877 0.95740300967750 0.08799693975453 
C8    C     0.83438765961229 0.45731654086677 0.41202408023066 
C9    C     0.34523679986224 0.87796263915398 0.99244413004752 
C10   C     0.65475303033802 0.37804577921971 0.50756542998019 
C11   C     0.21021918963290 0.14851335043318 0.87132776017429 
C12   C     0.78972283014710 0.64869939909361 0.62865977004450 
C13   C     0.36847615002082 0.89639070052273 0.85429092975014 
C14   C     0.63145503989792 0.39656759091075 0.64572129001190 
C15   C     0.24550214013314 0.89597813012551 0.10895067996629 
C16   C     0.75453831987378 0.39568243932353 0.39106707999792 
C17   C     0.33340510984785 0.84899154882359 0.06154594000178 
C18   C     0.66661862967106 0.34877686018131 0.43847107016566 
C19   C     0.22349543006386 0.10165904963168 0.80144905000375 
C20   C     0.77642723985277 0.60173803030098 0.69854881991695 
C21   C     0.43495341027879 0.79932174941910 0.94455622975772 
C22   C     0.56501778969956 0.29942161040754 0.55545659008135 
C23   C     0.12987065992343 0.34410074962867 0.90781272991226 
C24   C     0.87009196021317 0.84429909931096 0.59214724998990 
C25   C     0.44496116037371 0.79667359922010 0.87796841992043 
C26   C     0.55498240974053 0.29679191996654 0.62204932988435 
C27   C     0.38158608023815 0.87406939106440 0.78440603000864 
C28   C     0.61832333997904 0.37418228982142 0.71561211977547 
C29   C     0.31021473977818 0.95987353922366 0.75920454999451 
C30   C     0.68969170012821 0.45991505919755 0.74080951990883 
C31   C     0.06198696984605 0.45212638025429 0.87971114995366 
C32   C     0.93796772024340 0.95228653950428 0.62024215980772 
C33   C     0.15176823012799 0.20655052087778 0.77423632010172 
C34   C     0.84815769983525 0.70652221098064 0.72574924974990 
C35   C     0.07103988013851 0.37375055123706 0.81279874018990 
C36   C     0.92889882963586 0.87378100101602 0.68716724023738 
