data_stdin
_audit_creation_method 'critic2'
_audit_creation_date 2023-8-11
_chemical_formula_sum 'C18 H12'
_cell_formula_units_Z 4
_cell_length_a        16.6219576620
_cell_length_b        13.7840768135
_cell_length_c         5.0666508842
_cell_angle_alpha        90.0019
_cell_angle_beta        90.0021
_cell_angle_gamma        89.9981
_cell_volume          1160.862644
_space_group_crystal_system orthorhombic
_space_group_IT_number 19
_space_group_name_H-M_alt 'P2_12_12_1'
_space_group_name_Hall 'P 2ac 2ab'
loop_
_symmetry_equiv_pos_site_id
_symmetry_equiv_pos_as_xyz
 1 'x,y,z'
 2 '-1/2+x,-1/2-y,-z'
 3 '-1/2-x,-y,-1/2+z'
 4 '-x,-1/2+y,-1/2-z'
loop_
_atom_site_label
_atom_site_type_symbol
_atom_site_fract_x
_atom_site_fract_y
_atom_site_fract_z
H1    H     0.02955089995922 0.17352481989750 0.81864353961679 
H2    H     0.13747141018066 0.16963351974596 0.14802490991978 
H3    H     0.15149484974260 0.30295354002965 0.47766245079529 
H4    H     0.06171639009118 0.44675824000549 0.44590344910210 
H5    H     0.96387177007754 0.54087172022640 0.20535514932943 
H6    H     0.92441462006089 0.11781287965126 0.89458736066584 
H7    H     0.86554787978690 0.55584087978188 0.84178297028087 
H8    H     0.79043869987328 0.48766596034622 0.48243823925216 
H9    H     0.75139498992870 0.34836127021870 0.20068458094834 
H10   H     0.87116084983861 0.98058074020454 0.64402946056709 
H11   H     0.75090955026286 0.17617846972224 0.11418523994287 
H12   H     0.78750324015452 0.00776506969928 0.24303904908521 
C1    C     0.03281347001445 0.23108438018904 0.96440706946126 
C2    C     0.97665350989681 0.30863489023739 0.95407401946740 
C3    C     0.90928612980373 0.31273740013134 0.77231985907857 
C4    C     0.09474543009705 0.22964839018673 0.14720286904886 
C5    C     0.99215883996031 0.39030093034970 0.12161730063668 
C6    C     0.87623082013869 0.22911111005763 0.63709135979070 
C7    C     0.87320223025236 0.40461224974204 0.72474720915394 
C8    C     0.10372694022214 0.30550726971483 0.33111202054981 
C9    C     0.05354054015948 0.38500614006516 0.31456166956971 
C10   C     0.82074994007758 0.24366379016624 0.42362080010200 
C11   C     0.94951643971392 0.47872975008481 0.08123428997375 
C12   C     0.89069475996733 0.13188176015281 0.71549586082680 
C13   C     0.89518573987919 0.48676145978559 0.88036734943231 
C14   C     0.81503806975057 0.41564730980527 0.51960624967402 
C15   C     0.79255976021179 0.33888105980369 0.36602976044121 
C16   C     0.85900414012522 0.05423305968052 0.57778235028975 
C17   C     0.79091461004558 0.16296751001023 0.28098965962018 
C18   C     0.81072671993840 0.06940778029632 0.35342935944983 
