data_stdin
_audit_creation_method 'critic2'
_audit_creation_date 2023-8-11
_chemical_formula_sum 'C18 H12'
_cell_formula_units_Z 8
_cell_length_a         7.7725121072
_cell_length_b        36.3526185668
_cell_length_c         8.6059669437
_cell_angle_alpha        89.9988
_cell_angle_beta        90.0000
_cell_angle_gamma        89.9944
_cell_volume          2431.625999
_space_group_crystal_system orthorhombic
_space_group_IT_number 61
_space_group_name_H-M_alt 'Pbca'
_space_group_name_Hall '-P 2ac 2ab'
loop_
_symmetry_equiv_pos_site_id
_symmetry_equiv_pos_as_xyz
 1 'x,y,z'
 2 '-x,-y,-z'
 3 '-1/2-x,-y,-1/2+z'
 4 '-1/2+x,y,-1/2-z'
 5 '-1/2+x,-1/2-y,-z'
 6 '-1/2-x,-1/2+y,z'
 7 '-x,-1/2+y,-1/2-z'
 8 'x,-1/2-y,-1/2+z'
loop_
_atom_site_label
_atom_site_type_symbol
_atom_site_fract_x
_atom_site_fract_y
_atom_site_fract_z
H1    H     0.44566597997880 0.12957341988697 0.33182963021484 
H2    H     0.56327757063939 0.08893175007443 0.52887569033496 
H3    H     0.69591412944048 0.02894187993249 0.45638128003687 
H4    H     0.70024378968785 0.00982921993186 0.17854465057115 
H5    H     0.61154497957904 0.01920367011111 0.91153761988237 
H6    H     0.57734660044543 0.16891526012921 0.23255545959559 
H7    H     0.44868617053553 0.05526037993231 0.71748976025252 
H8    H     0.29445278937353 0.10920341998479 0.64091680954513 
H9    H     0.18162394982845 0.17144835998152 0.69421981026648 
H10   H     0.48774332049071 0.23238878993868 0.26764766989174 
H11   H     0.17522082969771 0.22609790008154 0.85599384967156 
H12   H     0.28071453956789 0.26186516999555 0.08121897047259 
C1    C     0.50924632056818 0.10449725013725 0.29485418970169 
C2    C     0.51818597025931 0.09564060990972 0.13461284967587 
C3    C     0.45208207950272 0.11922834007611 0.01257488942813 
C4    C     0.57130342958213 0.08090732996912 0.40746123023810 
C5    C     0.58206294048089 0.05979957008779 0.09494340029805 
C6    C     0.41362415978503 0.15799127989805 0.03249793964915 
C7    C     0.41727760000520 0.10305268989996 0.86562636048075 
C8    C     0.64520658971202 0.04696304987207 0.36639231999552 
C9    C     0.64922642984720 0.03658636000266 0.21224009006015 
C10   C     0.30824075014597 0.17611683989858 0.91875083943937 
C11   C     0.56373518949392 0.04656181993663 0.93985625957120 
C12   C     0.48140201034728 0.18013135990841 0.15402855043529 
C13   C     0.47516970997985 0.06663259995476 0.83211678980360 
C14   C     0.32269105030882 0.12281930003210 0.75063073947300 
C15   C     0.26178886945863 0.15737012006927 0.77941515971707 
C16   C     0.43396944002722 0.21660176009186 0.17176501052417 
C17   C     0.25898307005268 0.21321686998084 0.94152597040510 
C18   C     0.31834005063076 0.23319292998532 0.06700392047148 
