data_stdin
_audit_creation_method 'critic2'
_audit_creation_date 2023-8-11
_chemical_formula_sum 'C18 H12'
_cell_formula_units_Z 2
_cell_length_a         8.1691101482
_cell_length_b         8.1074531154
_cell_length_c         9.7317195686
_cell_angle_alpha        69.6533
_cell_angle_beta        78.8483
_cell_angle_gamma        95.6452
_cell_volume           583.224279
_space_group_crystal_system triclinic
_space_group_IT_number 2
_space_group_name_H-M_alt 'P-1'
_space_group_name_Hall '-P 1'
loop_
_symmetry_equiv_pos_site_id
_symmetry_equiv_pos_as_xyz
 1 'x,y,z'
 2 '-x,-y,-z'
loop_
_atom_site_label
_atom_site_type_symbol
_atom_site_fract_x
_atom_site_fract_y
_atom_site_fract_z
H1    H     0.38495525015862 0.82718179975415 0.67306873029261 
H2    H     0.19646617052072 0.94264258989397 0.82927307950969 
H3    H     0.05219749044048 0.75171767935870 0.09726197038033 
H4    H     0.08639880991200 0.43293340045192 0.19835663020037 
H5    H     0.18647717947311 0.18046013953210 0.16071743971189 
H6    H     0.62429686022129 0.85064151013615 0.66729799028709 
H7    H     0.35008817038733 0.04839290991489 0.99521721018033 
H8    H     0.53679098025160 0.07686327956496 0.76597158014594 
H9    H     0.74254177966278 0.26147031044401 0.52190716992193 
H10   H     0.86209734962880 0.01842207990894 0.45138579954309 
H11   H     0.91208562974850 0.54418461944932 0.35517837986693 
H12   H     0.00658626014891 0.86892413978555 0.28906755971772 
C1    C     0.32904673016109 0.74213193970215 0.79056258980445 
C2    C     0.36262398010536 0.56576294042138 0.84841780004925 
C3    C     0.48108817016050 0.49269581957775 0.76412172984317 
C4    C     0.21974966009212 0.80705188068090 0.87842219957063 
C5    C     0.26364391029174 0.45173442041736 0.99626370004834 
C6    C     0.61854166020787 0.59919361963924 0.63432779987648 
C7    C     0.46513220064634 0.30377903012971 0.81540546972360 
C8    C     0.13750876977246 0.69907622943654 0.02916643005025 
C9    C     0.15701305064313 0.52289539047420 0.08544597992473 
C10   C     0.71067640007729 0.51275216058744 0.54650892993478 
C11   C     0.26501713974434 0.26464546987521 0.04911250962135 
C12   C     0.67994741999386 0.78350798013575 0.59590485043716 
C13   C     0.35594108980697 0.19244745976547 0.95855913000385 
C14   C     0.55946691936872 0.22235800946655 0.72550987035862 
C15   C     0.67298641067277 0.32339725045842 0.59213426988636 
C16   C     0.81643546021676 0.87820162040260 0.47497762952486 
C17   C     0.84636242993093 0.61373326937053 0.42036832055444 
C18   C     0.89900159029853 0.79393781922335 0.38408303037831 
