data_stdin
_audit_creation_method 'critic2'
_audit_creation_date 2023-8-11
_chemical_formula_sum 'C18 H12'
_cell_formula_units_Z 8
_cell_length_a        30.5874916627
_cell_length_b         3.8339623774
_cell_length_c        20.7110839284
_cell_angle_alpha        89.8137
_cell_angle_beta        72.4017
_cell_angle_gamma        89.9695
_cell_volume          2315.134214
_space_group_crystal_system triclinic
_space_group_IT_number 2
_space_group_name_H-M_alt 'P-1'
_space_group_name_Hall '-P 1'
loop_
_symmetry_equiv_pos_site_id
_symmetry_equiv_pos_as_xyz
 1 'x,y,z'
 2 '-x,-y,-z'
 3 '-1/2+x,-1/2+y,z'
 4 '-1/2-x,-1/2-y,-z'
loop_
_atom_site_label
_atom_site_type_symbol
_atom_site_fract_x
_atom_site_fract_y
_atom_site_fract_z
H1    H     0.45199818378518 0.92090051330353 0.28541212486397 
H2    H     0.54785148661984 0.92314197860444 0.21434535028515 
H3    H     0.51504541062388 0.88556596605768 0.33491762977664 
H4    H     0.48484688339290 0.88469000157466 0.16482321590296 
H5    H     0.49933707354851 0.78592833310013 0.45881834787544 
H6    H     0.50064160507027 0.78210921180240 0.04110680102435 
H7    H     0.41872545343025 0.78431198543220 0.53355627723370 
H8    H     0.58127322755488 0.78043976189783 0.96647054151173 
H9    H     0.33693193706716 0.84759272033390 0.54971625148476 
H10   H     0.66305797712024 0.84520017726583 0.95029656706045 
H11   H     0.42633350910395 0.49086963961339 0.25537433106583 
H12   H     0.57342147489154 0.49337566953739 0.24517813002958 
H13   H     0.27391998921754 0.98652005995437 0.50210221895563 
H14   H     0.72603256194603 0.98600490584048 0.99775923802277 
H15   H     0.24550759750614 0.08589139861419 0.40729659902994 
H16   H     0.75440238191987 0.08713392097244 0.09243197639366 
H17   H     0.25634067730370 0.08488379732800 0.28380828714770 
H18   H     0.74355221664646 0.08670192312542 0.21592811006555 
H19   H     0.43159434021842 0.41752054547199 0.13620669139183 
H20   H     0.56820720492759 0.41967346408403 0.36439121000759 
H21   H     0.30260474892889 0.94770837776122 0.16954952088115 
H22   H     0.69735009224118 0.94897035799143 0.33030666350162 
H23   H     0.37130882865879 0.66823204059206 0.09042347227348 
H24   H     0.62862107626972 0.66920292753070 0.40980007305643 
C1    C     0.44418828307479 0.86996491220556 0.33928781050145 
C2    C     0.55569022625392 0.87075562953318 0.16057843961666 
C3    C     0.39777643542993 0.83871587875718 0.37963715125556 
C4    C     0.60211442312740 0.83932444305111 0.12034859879981 
C5    C     0.35939465030559 0.85040513633526 0.35243508516482 
C6    C     0.64046838371088 0.85197253347278 0.14759369528363 
C7    C     0.47985450935949 0.85490574298455 0.36719921926424 
C8    C     0.52005175153327 0.85403569585927 0.13264304443403 
C9    C     0.38906070531192 0.82542529763408 0.45163086774669 
C10   C     0.61087795598265 0.82439483192827 0.04837479451077 
C11   C     0.36306111409457 0.78722516898513 0.28211611570118 
C12   C     0.63677221464918 0.78934832215195 0.21801444476843 
C13   C     0.31552233008241 0.93309677827601 0.39742837728115 
C14   C     0.68436646141932 0.93423817592764 0.10249398208203 
C15   C     0.47103799987411 0.80570336901435 0.43730704688885 
C16   C     0.52891443864565 0.80310544776379 0.06262952508622 
C17   C     0.42622008409043 0.79851595438240 0.47874899470323 
C18   C     0.57374714611989 0.79592975493383 0.02125252727154 
C19   C     0.32595217798690 0.88863907334341 0.25734858869536 
C20   C     0.67391014145562 0.89064988749069 0.24264055666331 
C21   C     0.34323751301436 0.86219452805203 0.49511902354590 
C22   C     0.65671850453747 0.86093835650643 0.00487135477555 
C23   C     0.40026851330520 0.60831555519303 0.23648981123181 
C24   C     0.59953583556334 0.61057535751555 0.26388252330639 
C25   C     0.30834407123333 0.93439701429858 0.46878536363342 
C26   C     0.69158689257115 0.93423418518106 0.03112683114891 
C27   C     0.27843443070017 0.01406342192612 0.37153215663801 
C28   C     0.72145452094542 0.01560724831911 0.12829031771748 
C29   C     0.28420493562810 0.01049087159622 0.30352580577628 
C30   C     0.71567550831400 0.01237995892709 0.19630201132224 
C31   C     0.40293065673445 0.56302203929788 0.16919587826799 
C32   C     0.59690442063188 0.56499547557292 0.33121114251597 
C33   C     0.33035895402839 0.85204879758506 0.18770295078247 
C34   C     0.66954398298030 0.85368405084287 0.31231104034098 
C35   C     0.36848148930197 0.69622395998445 0.14380690777888 
C36   C     0.63141284722031 0.69774059200786 0.35640533641411 
