data_stdin
_audit_creation_method 'critic2'
_audit_creation_date 2023-8-11
_chemical_formula_sum 'C18 H12'
_cell_formula_units_Z 2
_cell_length_a         7.7253891542
_cell_length_b        10.2454639027
_cell_length_c         8.2034492850
_cell_angle_alpha        76.3523
_cell_angle_beta        75.0510
_cell_angle_gamma        72.4362
_cell_volume           589.207729
_space_group_crystal_system triclinic
_space_group_IT_number 2
_space_group_name_H-M_alt 'P-1'
_space_group_name_Hall '-P 1'
loop_
_symmetry_equiv_pos_site_id
_symmetry_equiv_pos_as_xyz
 1 'x,y,z'
 2 '-x,-y,-z'
loop_
_atom_site_label
_atom_site_type_symbol
_atom_site_fract_x
_atom_site_fract_y
_atom_site_fract_z
H1    H     0.60697292006206 0.46972013024952 0.15032744012229 
H2    H     0.85394036022607 0.26643504010972 0.07634110007521 
H3    H     0.09452534029855 0.28598347974356 0.80778452944402 
H4    H     0.06339657089082 0.50977311959388 0.60371259945991 
H5    H     0.88649785961198 0.74397894978685 0.51402053975037 
H6    H     0.64275206968496 0.59617208002783 0.28056318973050 
H7    H     0.61204394039371 0.94163791013183 0.57026914959097 
H8    H     0.33516519063509 0.04933211017886 0.75172116969673 
H9    H     0.12318206976557 0.05819292998786 0.03556108000791 
H10   H     0.46172170984281 0.63242418000716 0.56459367045565 
H11   H     0.05915229944973 0.97030803994012 0.33959841990466 
H12   H     0.15871099956666 0.81205512038863 0.59864478963022 
C1    C     0.71185343013329 0.48194674044952 0.03515767943340 
C2    C     0.69671867056930 0.61355626955078 0.92734635027811 
C3    C     0.55604915023313 0.73802723973296 0.96863332940181 
C4    C     0.85014540961420 0.36637653052188 0.99207993988085 
C5    C     0.82036062934538 0.61908006017467 0.76354997035692 
C6    C     0.45247051935558 0.75578177047449 0.13993534027873 
C7    C     0.51858468943041 0.85066432965457 0.83273927031322 
C8    C     0.98244644022738 0.37640861965537 0.83865263948657 
C9    C     0.96583305951407 0.50075606951098 0.72564904011446 
C10   C     0.29067963053428 0.86963068986525 0.16127536041826 
C11   C     0.79054166934713 0.74144218025261 0.63740556009098 
C12   C     0.51067095936493 0.67363714018947 0.29093126992149 
C13   C     0.63961910987657 0.85034415002056 0.66871275937737 
C14   C     0.36095091979859 0.96574554033956 0.85972197976275 
C15   C     0.24545886073655 0.97165914965657 0.01649187942101 
C16   C     0.40878087945752 0.69487594049488 0.45228494013099 
C17   C     0.18420329062761 0.88508046037365 0.32734273946101 
C18   C     0.24054992959222 0.79841917001151 0.47127820978844 
