data_stdin
_audit_creation_method 'critic2'
_audit_creation_date 2023-8-11
_chemical_formula_sum 'C18 H12'
_cell_formula_units_Z 8
_cell_length_a        27.1241711900
_cell_length_b         9.0503155709
_cell_length_c        10.1013860197
_cell_angle_alpha        90.0001
_cell_angle_beta        89.9974
_cell_angle_gamma        89.9992
_cell_volume          2479.711560
_space_group_crystal_system orthorhombic
_space_group_IT_number 61
_space_group_name_H-M_alt 'Pbca'
_space_group_name_Hall '-P 2ac 2ab'
loop_
_symmetry_equiv_pos_site_id
_symmetry_equiv_pos_as_xyz
 1 'x,y,z'
 2 '-x,-y,-z'
 3 '-1/2+x,-1/2-y,-z'
 4 '-1/2-x,-1/2+y,z'
 5 '-x,-1/2+y,-1/2-z'
 6 'x,-1/2-y,-1/2+z'
 7 '-1/2-x,-y,-1/2+z'
 8 '-1/2+x,y,-1/2-z'
loop_
_atom_site_label
_atom_site_type_symbol
_atom_site_fract_x
_atom_site_fract_y
_atom_site_fract_z
H1    H     0.07056000011976 0.19131671959887 0.38695174999061 
H2    H     0.05478524988840 0.44873309953543 0.32575407982593 
H3    H     0.10204636998024 0.56878748992851 0.14398358994339 
H4    H     0.16824903006440 0.42848467044766 0.03014113980099 
H5    H     0.22060768984833 0.21082966020020 0.01234409996577 
H6    H     0.03647532986359 0.01770993030574 0.30357775965225 
H7    H     0.24903856011518 0.97443105017484 0.10891274008202 
H8    H     0.23897283007662 0.77106902996346 0.25849214971590 
H9    H     0.18825984982957 0.62586136978328 0.41632986993882 
H10   H     0.98471875998153 0.85243852944929 0.43338385959990 
H11   H     0.11049414013378 0.58097898951871 0.52434992005464 
H12   H     0.02174983005442 0.63880378005379 0.55635910048812 
C1    C     0.09043214996858 0.23888093979338 0.30405697966701 
C2    C     0.12676076988229 0.15340799040365 0.23820749034758 
C3    C     0.13812408013546 0.00153992020037 0.27258837007745 
C4    C     0.08200673993268 0.38501239012717 0.27100695970683 
C5    C     0.15650625987715 0.22745612004677 0.14112789002212 
C6    C     0.10533342010327 0.90412673984370 0.34499233029710 
C7    C     0.18485921986824 0.94516030029428 0.23416543001136 
C8    C     0.10912010998349 0.45391227976783 0.16947831017648 
C9    C     0.14594664997150 0.37562163992140 0.10632920975017 
C10   C     0.12492541988877 0.77101685991446 0.40151362973386 
C11   C     0.19893585982825 0.15523295992919 0.08835009974247 
C12   C     0.05375959996416 0.92681793973428 0.35633686955134 
C13   C     0.21421401991033 0.02334586983433 0.13993807983966 
C14   C     0.20244204988166 0.80892160012327 0.28753663034786 
C15   C     0.17440651988615 0.72810461049968 0.37335177994278 
C16   C     0.02421766994897 0.83222034050459 0.42917611029578 
C17   C     0.09433035985743 0.67905369985094 0.47959124958242 
C18   C     0.04482765990366 0.71023642015141 0.49560729025091 
