data_stdin
_audit_creation_method 'critic2'
_audit_creation_date 2023-8-11
_chemical_formula_sum 'C18 H12'
_cell_formula_units_Z 2
_cell_length_a        10.0475502506
_cell_length_b         7.7324263737
_cell_length_c         8.2253630285
_cell_angle_alpha        82.7204
_cell_angle_beta        71.2300
_cell_angle_gamma       101.6704
_cell_volume           579.735233
_space_group_crystal_system triclinic
_space_group_IT_number 2
_space_group_name_H-M_alt 'P-1'
_space_group_name_Hall '-P 1'
loop_
_symmetry_equiv_pos_site_id
_symmetry_equiv_pos_as_xyz
 1 'x,y,z'
 2 '-x,-y,-z'
loop_
_atom_site_label
_atom_site_type_symbol
_atom_site_fract_x
_atom_site_fract_y
_atom_site_fract_z
H1    H     0.79539122031986 0.33073557006881 0.54607989968384 
H2    H     0.89654808002393 0.35291673962097 0.77817062028006 
H3    H     0.95683683054928 0.08794334972298 0.91602805940200 
H4    H     0.90114508018076 0.79487368019108 0.82670326021351 
H5    H     0.79101200027577 0.60596344977298 0.66757720978043 
H6    H     0.90311895932993 0.38222155939983 0.29193587057517 
H7    H     0.64631819999407 0.56607083036557 0.47458977046368 
H8    H     0.52388561955082 0.68303289009917 0.29911420065945 
H9    H     0.46429078986361 0.93955686061067 0.14926155943825 
H10   H     0.86715688037249 0.62840324962263 0.10780024950928 
H11   H     0.51376419000865 0.26084910018073 0.04195589027068 
H12   H     0.66427704999696 0.57449046949067 0.99121909947066 
C1    C     0.82456377042082 0.21450298060240 0.59963779995483 
C2    C     0.79518627025595 0.05078842006388 0.54103403935849 
C3    C     0.73066168035100 0.02925935974544 0.40820798955426 
C4    C     0.88051068040542 0.22711010047633 0.73211838055797 
C5    C     0.81813264045080 0.89546967035170 0.63265634993271 
C6    C     0.72137102028429 0.17752194973689 0.28904239043543 
C7    C     0.66674629978369 0.85122711955242 0.39866309965170 
C8    C     0.91218997011565 0.07676604005898 0.81242670015320 
C9    C     0.88069566019584 0.91387406009055 0.76311447051588 
C10   C     0.61858146976453 0.14372068941575 0.20225574984892 
C11   C     0.77001018961662 0.72173544934874 0.59924315007907 
C12   C     0.81340218967220 0.35483991926572 0.24460340058293 
C13   C     0.69095940029717 0.69976878004523 0.49253066055411 
C14   C     0.57418916000510 0.82179054027893 0.29916574029907 
C15   C     0.54367800012423 0.96283771065214 0.21333529987014 
C16   C     0.79457363008537 0.49407666967310 0.13771780997531 
C17   C     0.59721566017188 0.28949975972883 0.09978745056921 
C18   C     0.68174233971728 0.46323930013786 0.07008340950494 
