data_stdin
_audit_creation_method 'critic2'
_audit_creation_date 2023-8-11
_chemical_formula_sum 'C18 H12'
_cell_formula_units_Z 8
_cell_length_a        28.2957329384
_cell_length_b        10.0664804322
_cell_length_c         8.5758290778
_cell_angle_alpha        90.0005
_cell_angle_beta        99.8401
_cell_angle_gamma        89.9999
_cell_volume          2406.789945
_space_group_crystal_system monoclinic
_space_group_IT_number 15
_space_group_name_H-M_alt 'C2/c'
_space_group_name_Hall '-C 2yc'
loop_
_symmetry_equiv_pos_site_id
_symmetry_equiv_pos_as_xyz
 1 'x,y,z'
 2 '-x,-y,-z'
 3 '-x,y,-1/2-z'
 4 'x,-y,-1/2+z'
 5 '-1/2+x,-1/2+y,z'
 6 '-1/2-x,-1/2-y,-z'
 7 '-1/2-x,-1/2+y,-1/2-z'
 8 '-1/2+x,-1/2-y,-1/2+z'
loop_
_atom_site_label
_atom_site_type_symbol
_atom_site_fract_x
_atom_site_fract_y
_atom_site_fract_z
H1    H     0.21106834015973 0.70326476027678 0.74931364024161 
H2    H     0.26127109015066 0.86482298974271 0.91301478957047 
H3    H     0.22477237988893 0.06558439998813 0.01799601029423 
H4    H     0.13820778995627 0.11228672015361 0.92852272040845 
H5    H     0.06214433004346 0.05988169014126 0.76527401986770 
H6    H     0.17929389998111 0.55932519966202 0.85497685049550 
H7    H     0.01284617011045 0.91240543018603 0.56817341008645 
H8    H     0.00386883010714 0.71647474961735 0.40531524981413 
H9    H     0.02869413996902 0.48644935049181 0.35477481971988 
H10   H     0.19192362984198 0.32014049034286 0.83782784975452 
H11   H     0.07535367000663 0.29353586027134 0.44579804036040 
H12   H     0.14182678985973 0.18490929984577 0.62774586987011 
C1    C     0.19417487004558 0.78932901017451 0.79309913978054 
C2    C     0.14393146006382 0.80748491007093 0.75048515009728 
C3    C     0.11200290009701 0.71159012007948 0.66077170008616 
C4    C     0.22277825987052 0.88150374007682 0.88479771054633 
C5    C     0.12462253995842 0.93154243031202 0.79306928951509 
C6    C     0.12221637996017 0.57096139045619 0.65136527000313 
C7    C     0.06650399983485 0.75759284969057 0.58340111010459 
C8    C     0.20250102988827 0.99616762971332 0.94027334945504 
C9    C     0.15421088998171 0.02137272035554 0.89256313014803 
C10   C     0.09111100985862 0.49032468000396 0.54005038945088 
C11   C     0.07617632010645 0.96569119977277 0.73017721980482 
C12   C     0.15819513009777 0.50428862000453 0.75867170023393 
C13   C     0.04917529004866 0.88456425031049 0.62214763031218 
C14   C     0.03733628986535 0.67579555010578 0.46944601048822 
C15   C     0.05053092007964 0.54846685988982 0.44290382999610 
C16   C     0.16473463987185 0.36840230980570 0.75093609980756 
C17   C     0.09915951005270 0.35197973044960 0.53297244008643 
C18   C     0.13585565009971 0.29133874009144 0.63491004986378 
