data_stdin
_audit_creation_method 'critic2'
_audit_creation_date 2023-8-11
_chemical_formula_sum 'C18 H12'
_cell_formula_units_Z 8
_cell_length_a        14.9040348467
_cell_length_b        14.7910550608
_cell_length_c        11.4558942162
_cell_angle_alpha        90.0008
_cell_angle_beta        73.2048
_cell_angle_gamma        90.0010
_cell_volume          2417.685451
_space_group_crystal_system monoclinic
_space_group_IT_number 15
_space_group_name_H-M_alt 'C2/c'
_space_group_name_Hall '-C 2yc'
loop_
_symmetry_equiv_pos_site_id
_symmetry_equiv_pos_as_xyz
 1 'x,y,z'
 2 '-1/2-x,-1/2-y,-z'
 3 '-1/2-x,-1/2+y,-1/2-z'
 4 'x,-y,-1/2+z'
 5 '-1/2+x,-1/2+y,z'
 6 '-x,-y,-z'
 7 '-x,y,-1/2-z'
 8 '-1/2+x,-1/2-y,-1/2+z'
loop_
_atom_site_label
_atom_site_type_symbol
_atom_site_fract_x
_atom_site_fract_y
_atom_site_fract_z
H1    H     0.39007456384602 0.30615399150579 0.36948183060594 
H2    H     0.43550750316772 0.17666152922455 0.23390400583621 
H3    H     0.31750042902284 0.09443795467859 0.15714330710953 
H4    H     0.15127038573533 0.14113314078368 0.22843546604816 
H5    H     0.02819640432646 0.23621254078206 0.35214589972631 
H6    H     0.40066470874059 0.42681219438490 0.30770616688029 
H7    H     0.97686033850005 0.36001034353110 0.50139054368854 
H8    H     0.00913967783114 0.47968374056277 0.62216457945952 
H9    H     0.11968060842675 0.58289745899142 0.68147075489750 
H10   H     0.50441839864300 0.53878367484583 0.35760869943189 
H11   H     0.27470421173529 0.64366459391163 0.64441807756077 
H12   H     0.44353298256213 0.64640459507577 0.53070635033756 
C1    C     0.33813485393940 0.27553769594929 0.33231617220199 
C2    C     0.24498637525362 0.30917183969860 0.36685662120523 
C3    C     0.21541149312858 0.39060511906454 0.43834910668623 
C4    C     0.36352883823173 0.20067771772362 0.25778918094655 
C5    C     0.17631035389540 0.25560491025417 0.33234093672323 
C6    C     0.27859239453714 0.45975207823085 0.45842377352704 
C7    C     0.11767117072846 0.40364587896719 0.49245344178214 
C8    C     0.29707790787112 0.15329501637388 0.21586246100723 
C9    C     0.20439864898943 0.17962161650907 0.25528709891096 
C10   C     0.24285446040363 0.52742334685571 0.54998739755092 
C11   C     0.07938425143812 0.27738460659223 0.37937110232789 
C12   C     0.37353613577511 0.46928572915379 0.38731734786566 
C13   C     0.05113087565820 0.34625300033533 0.46108268090300 
C14   C     0.08444878888886 0.47377549566993 0.57985743502076 
C15   C     0.14508598398402 0.53119052139651 0.61189881875209 
C16   C     0.43167449999117 0.53451836530449 0.41312925830320 
C17   C     0.30373450255705 0.59342017738013 0.57445052101056 
C18   C     0.39740949475303 0.59582861015027 0.50972076140972 
