data_stdin
_audit_creation_method 'critic2'
_audit_creation_date 2023-8-11
_chemical_formula_sum 'C18 H12'
_cell_formula_units_Z 8
_cell_length_a        21.1200274403
_cell_length_b        14.7773862500
_cell_length_c         7.6259683803
_cell_angle_alpha        90.0000
_cell_angle_beta        90.0008
_cell_angle_gamma        90.0002
_cell_volume          2380.055604
_space_group_crystal_system orthorhombic
_space_group_IT_number 61
_space_group_name_H-M_alt 'Pbca'
_space_group_name_Hall '-P 2ac 2ab'
loop_
_symmetry_equiv_pos_site_id
_symmetry_equiv_pos_as_xyz
 1 'x,y,z'
 2 '-x,-y,-z'
 3 '-x,-1/2+y,-1/2-z'
 4 'x,-1/2-y,-1/2+z'
 5 '-1/2-x,-y,-1/2+z'
 6 '-1/2+x,y,-1/2-z'
 7 '-1/2+x,-1/2-y,-z'
 8 '-1/2-x,-1/2+y,z'
loop_
_atom_site_label
_atom_site_type_symbol
_atom_site_fract_x
_atom_site_fract_y
_atom_site_fract_z
H1    H     0.68920581988278 0.82315293004521 0.04987235014338 
H2    H     0.61333086003630 0.93992650007266 0.12978567968308 
H3    H     0.50484634984515 0.89878448985243 0.23217899013857 
H4    H     0.47357405017934 0.73650600011366 0.24380335987567 
H5    H     0.49598527000869 0.57879455020358 0.19411980950966 
H6    H     0.74988833001004 0.77152670018523 0.21482962973880 
H7    H     0.56627861002006 0.46091745986210 0.06761656058816 
H8    H     0.66426871010498 0.41510215968489 0.93648963944334 
H9    H     0.77635201013245 0.44432017972741 0.86291779036891 
H10   H     0.86360257994372 0.78501653973869 0.18484398045643 
H11   H     0.87011916011155 0.53521901030961 0.89423873999336 
H12   H     0.92589977003941 0.66932111006325 0.01605595018584 
C1    C     0.64345991000934 0.80263823027510 0.10078587000298 
C2    C     0.62864099011910 0.70939131033787 0.11560361035349 
C3    C     0.67261292994275 0.63729555024063 0.07304409941265 
C4    C     0.59990617982389 0.86915601033195 0.14218243007097 
C5    C     0.56486426977701 0.68666287019444 0.16305410056780 
C6    C     0.74072633018196 0.64851480010899 0.05993175044639 
C7    C     0.64738808986524 0.54959953981407 0.04212775978138 
C8    C     0.53869501006428 0.84595302027202 0.19896430993658 
C9    C     0.52153654001215 0.75590689003722 0.20729824974196 
C10   C     0.77747072017761 0.57826766988966 0.97899736970812 
C11   C     0.54426030017537 0.59493975971876 0.15426095036729 
C12   C     0.77462029020848 0.72157091969887 0.13621299053068 
C13   C     0.58321059998063 0.52988990000108 0.08680541057199 
C14   C     0.68576008987404 0.48037769006134 0.96632900053529 
C15   C     0.74786462010472 0.49587162966385 0.92727135934998 
C16   C     0.83976227023515 0.72851075001605 0.12152375973295 
C17   C     0.84380400979672 0.58843800031798 0.96106513972625 
C18   C     0.87477492978108 0.66268591966633 0.02988768038702 
