data_stdin
_audit_creation_method 'critic2'
_audit_creation_date 2023-8-11
_chemical_formula_sum 'C18 H12'
_cell_formula_units_Z 8
_cell_length_a        11.5442760486
_cell_length_b        10.2925439162
_cell_length_c        20.1773265993
_cell_angle_alpha        90.0039
_cell_angle_beta        82.0602
_cell_angle_gamma        89.9979
_cell_volume          2374.486655
_space_group_crystal_system monoclinic
_space_group_IT_number 15
_space_group_name_H-M_alt 'C2/c'
_space_group_name_Hall '-C 2yc'
loop_
_symmetry_equiv_pos_site_id
_symmetry_equiv_pos_as_xyz
 1 'x,y,z'
 2 '-1/2-x,-1/2-y,-1/2-z'
 3 '-x,-1/2+y,-1/2-z'
 4 '-1/2+x,-y,z'
 5 '-1/2+x,-1/2+y,-1/2+z'
 6 '-x,-y,-z'
 7 '-1/2-x,y,-z'
 8 'x,-1/2-y,-1/2+z'
loop_
_atom_site_label
_atom_site_type_symbol
_atom_site_fract_x
_atom_site_fract_y
_atom_site_fract_z
H1    H     0.11968911993224 0.51827777995505 0.10817427990847 
H2    H     0.19824081962807 0.72846314967012 0.13566514977549 
H3    H     0.38456214991273 0.74178376952337 0.18545968002277 
H4    H     0.48290594964135 0.53799307008635 0.21277175003708 
H5    H     0.48796739976933 0.30447964028489 0.22129254012865 
H6    H     0.14933254032730 0.42853151951662 0.02112607010680 
H7    H     0.39249900004620 0.09084224968715 0.21021190980891 
H8    H     0.24077889956383 0.96105176962632 0.17755337012959 
H9    H     0.05964729042066 0.93525494996963 0.12497583980703 
H10   H     0.98606546027459 0.39025467007378 0.95980575976044 
H11   H     0.91739978977528 0.02342585035173 0.05919628007084 
H12   H     0.85864275957886 0.19371823998861 0.98342452993339 
C1    C     0.20254865033277 0.52104872982216 0.12765597997657 
C2    C     0.25993595002806 0.40260668047154 0.13876459005592 
C3    C     0.21581457023465 0.27566950018890 0.12348936974919 
C4    C     0.24571105018251 0.64014758047783 0.14457873989638 
C5    C     0.36102655040049 0.41116318021902 0.17274629982631 
C6    C     0.12476095001944 0.25397481994277 0.08188111000471 
C7    C     0.26087587016770 0.16570716003271 0.15387639017012 
C8    C     0.34949144985039 0.64774669033214 0.17364966021556 
C9    C     0.40498529024765 0.53448861986518 0.18796651008842 
C10   C     0.06358923008300 0.13226194010883 0.08674637016605 
C11   C     0.41174648972761 0.29577379991349 0.19519727008596 
C12   C     0.09551209986448 0.34309284028795 0.03328369024976 
C13   C     0.35998101013692 0.17814926977510 0.18847033024152 
C14   C     0.20514267999223 0.04218062984058 0.15218464022488 
C15   C     0.10587671016979 0.02770223953221 0.12312946986505 
C16   C     0.00317835996853 0.32075686973214 0.99782720996203 
C17   C     0.96540502986291 0.11463290011448 0.05266915980773 
C18   C     0.93372658007032 0.20872018984642 0.00978853012887 
