data_stdin
_audit_creation_method 'critic2'
_audit_creation_date 2023-8-11
_chemical_formula_sum 'C18 H12'
_cell_formula_units_Z 8
_cell_length_a         7.3510346147
_cell_length_b        21.9293342201
_cell_length_c        15.0877074209
_cell_angle_alpha        89.9992
_cell_angle_beta        89.9981
_cell_angle_gamma        89.9996
_cell_volume          2432.188148
_space_group_crystal_system orthorhombic
_space_group_IT_number 61
_space_group_name_H-M_alt 'Pbca'
_space_group_name_Hall '-P 2ac 2ab'
loop_
_symmetry_equiv_pos_site_id
_symmetry_equiv_pos_as_xyz
 1 'x,y,z'
 2 '-x,-y,-z'
 3 '-1/2-x,-y,-1/2+z'
 4 '-1/2+x,y,-1/2-z'
 5 '-1/2+x,-1/2-y,-z'
 6 '-1/2-x,-1/2+y,z'
 7 '-x,-1/2+y,-1/2-z'
 8 'x,-1/2-y,-1/2+z'
loop_
_atom_site_label
_atom_site_type_symbol
_atom_site_fract_x
_atom_site_fract_y
_atom_site_fract_z
H1    H     0.35530385967325 0.76614157019771 0.54093155027906 
H2    H     0.44087039061259 0.65903534017967 0.55159352028906 
H3    H     0.48148551002595 0.59626051996059 0.41475014019172 
H4    H     0.40141086026034 0.64124662985651 0.26811167019501 
H5    H     0.29241024037848 0.72431707990101 0.17974671969838 
H6    H     0.53454166957218 0.83203180000887 0.53365109970657 
H7    H     0.17400391016383 0.83001059016636 0.16783919982498 
H8    H     0.08296024012645 0.92324407989079 0.23430564997232 
H9    H     0.08077657011316 0.99591345987114 0.36038790022952 
H10   H     0.55573250044379 0.90882751986296 0.64933984027232 
H11   H     0.18535885970748 0.02461207002007 0.50729199011052 
H12   H     0.36798357037252 0.00405516008247 0.64187393031869 
C1    C     0.37471294933787 0.74041908021046 0.48035851975219 
C2    C     0.34562182988006 0.76925873007355 0.39738800019559 
C3    C     0.30367156053176 0.83351390977547 0.38714335028962 
C4    C     0.42007216001052 0.67936092986461 0.48657063022056 
C5    C     0.34622142012246 0.73080684021884 0.32043174027682 
C6    C     0.33010223943851 0.87935246992020 0.45542842027706 
C7    C     0.22837011056471 0.85268889016634 0.30499341002346 
C8    C     0.43829489025693 0.64358759993335 0.40959524967780 
C9    C     0.39709588933374 0.66878304980168 0.32821639010933 
C10   C     0.24236614984628 0.93755288022100 0.44614840012979 
C11   C     0.29139731000684 0.75463395996168 0.23687159988689 
C12   C     0.44697978065712 0.87178434985700 0.52951987997504 
C13   C     0.22754108943575 0.81283807000882 0.23032131972174 
C14   C     0.14928388010710 0.91185018981762 0.29670028028539 
C15   C     0.14843054978605 0.95187965979374 0.36605085994447 
C16   C     0.46061719985899 0.91580496979657 0.59493503993623 
C17   C     0.25476973039079 0.98107528978465 0.51520978024292 
C18   C     0.35850304045912 0.96995836986773 0.58973023968432 
