data_stdin
_audit_creation_method 'critic2'
_audit_creation_date 2023-8-11
_chemical_formula_sum 'C18 H12'
_cell_formula_units_Z 8
_cell_length_a        20.6438321200
_cell_length_b         9.4241225908
_cell_length_c        12.4212744504
_cell_angle_alpha        89.9996
_cell_angle_beta        90.0005
_cell_angle_gamma        89.9993
_cell_volume          2416.559002
_space_group_crystal_system orthorhombic
_space_group_IT_number 61
_space_group_name_H-M_alt 'Pbca'
_space_group_name_Hall '-P 2ac 2ab'
loop_
_symmetry_equiv_pos_site_id
_symmetry_equiv_pos_as_xyz
 1 'x,y,z'
 2 '-x,-y,-z'
 3 '-1/2+x,-1/2-y,-z'
 4 '-1/2-x,-1/2+y,z'
 5 '-x,-1/2+y,-1/2-z'
 6 'x,-1/2-y,-1/2+z'
 7 '-1/2-x,-y,-1/2+z'
 8 '-1/2+x,y,-1/2-z'
loop_
_atom_site_label
_atom_site_type_symbol
_atom_site_fract_x
_atom_site_fract_y
_atom_site_fract_z
H1    H     0.32771570022333 0.00033369035824 0.18139973975688 
H2    H     0.27938229995757 0.15715619982185 0.31650480027365 
H3    H     0.29300741008432 0.41899773025567 0.30420442020155 
H4    H     0.36294403010260 0.52063171985449 0.16130310024777 
H5    H     0.43806085007271 0.48950691018705 0.01334600008297 
H6    H     0.27924582996541 0.94718275023057 0.05339368999815 
H7    H     0.49767812979911 0.33173884957388 0.88827484965114 
H8    H     0.52048173007625 0.10246066037031 0.81683821986417 
H9    H     0.49588209002804 0.84672649961748 0.79753848963638 
H10   H     0.24887156990326 0.70480336971734 0.01313821038313 
H11   H     0.42264228992723 0.64894351046573 0.82691423015164 
H12   H     0.32219939002411 0.54793883010699 0.90452813981807 
C1    C     0.33299177994561 0.11430171008546 0.17209865010199 
C2    C     0.36836936999762 0.16955377983933 0.08339120980108 
C3    C     0.39409566007052 0.08360084963586 0.99645458018895 
C4    C     0.30652112008274 0.20235783990054 0.24963892022164 
C5    C     0.38222054984528 0.31889192957020 0.08488281003076 
C6    C     0.37246327980864 0.94103034995795 0.97138024982502 
C7    C     0.44402259016021 0.14275930976686 0.93186844963535 
C8    C     0.31459508985152 0.35042100985736 0.24358144962016 
C9    C     0.35314020022924 0.40705554013477 0.16357081005525 
C10   C     0.41055481004433 0.85527427996065 0.89971535961395 
C11   C     0.42781439991177 0.37629191001271 0.01050284963780 
C12   C     0.31301809977831 0.88246914050036 0.00790430011792 
C13   C     0.45983942992815 0.28960969999302 0.94041844015366 
C14   C     0.47977868990398 0.05526550052054 0.85957066990735 
C15   C     0.46574682019868 0.91469611948826 0.84773541037763 
C16   C     0.29503304017778 0.74463888025549 0.98371817977341 
C17   C     0.39176738000171 0.71357860042949 0.87844477994712 
C18   C     0.33547619005017 0.65762847049477 0.92082718000000 
