data_stdin
_audit_creation_method 'critic2'
_audit_creation_date 2023-8-11
_chemical_formula_sum 'C18 H12'
_cell_formula_units_Z 4
_cell_length_a        10.6084017701
_cell_length_b         7.2273811100
_cell_length_c        15.5403446300
_cell_angle_alpha        90.0000
_cell_angle_beta        89.9997
_cell_angle_gamma        90.0000
_cell_volume          1191.493181
_space_group_crystal_system orthorhombic
_space_group_IT_number 19
_space_group_name_H-M_alt 'P2_12_12_1'
_space_group_name_Hall 'P 2ac 2ab'
loop_
_symmetry_equiv_pos_site_id
_symmetry_equiv_pos_as_xyz
 1 'x,y,z'
 2 '-1/2-x,-y,-1/2+z'
 3 '-x,-1/2+y,-1/2-z'
 4 '-1/2+x,-1/2-y,-z'
loop_
_atom_site_label
_atom_site_type_symbol
_atom_site_fract_x
_atom_site_fract_y
_atom_site_fract_z
H1    H     0.71287010960979 0.83148698036652 0.22296255015989 
H2    H     0.94102273999682 0.87551444980463 0.23845760988535 
H3    H     0.06262004980944 0.05140462985994 0.12713260004679 
H4    H     0.95540415040580 0.14844977005731 0.99292232006339 
H5    H     0.77244867021677 0.14333434027355 0.89929093006762 
H6    H     0.59226102007098 0.03735716044690 0.26351182028249 
H7    H     0.55156764013379 0.04246101035178 0.87256126021273 
H8    H     0.35533781985947 0.91711647939575 0.92123263031365 
H9    H     0.21091291002297 0.82671083973537 0.03880175000784 
H10   H     0.43699312956596 0.99048992026612 0.37755922995568 
H11   H     0.16683242022536 0.79746506017655 0.19162359031072 
H12   H     0.22589234998584 0.85380713002636 0.34390747017674 
C1    C     0.76370425039129 0.90990979020177 0.17445486998162 
C2    C     0.69789536997075 0.97681433065585 0.10137134022328 
C3    C     0.56282246991652 0.95922904960833 0.09020929980611 
C4    C     0.89264789973549 0.93348740055898 0.18280323016273 
C5    C     0.77167727960865 0.05290401966442 0.03255248018611 
C6    C     0.47380956991971 0.93524991060481 0.16001464988623 
C7    C     0.51483091029404 0.96820993026953 0.00505106976988 
C8    C     0.96194798002199 0.02796228010529 0.11919566998000 
C9    C     0.90211802998672 0.08338748983751 0.04458075020078 
C10   C     0.34680590995579 0.88183771053307 0.14014677969692 
C11   C     0.71485444016971 0.08537704008673 0.95073579017193 
C12   C     0.50171891957624 0.97673025062156 0.24723144988145 
C13   C     0.59318401006095 0.03188370997118 0.93640069032121 
C14   C     0.38711540041194 0.91902070937514 0.98780435009505 
C15   C     0.30713228039888 0.86986149969095 0.05266156003631 
C16   C     0.41335187006059 0.95229607955368 0.31171649992407 
C17   C     0.26036518971881 0.84877296939423 0.20786645975500 
C18   C     0.29296169997680 0.88134773939076 0.29253433012145 
