data_stdin
_audit_creation_method 'critic2'
_audit_creation_date 2023-8-11
_chemical_formula_sum 'C18 H12'
_cell_formula_units_Z 4
_cell_length_a        21.0680869435
_cell_length_b         3.9228342536
_cell_length_c        13.9181643146
_cell_angle_alpha        89.9970
_cell_angle_beta        89.9973
_cell_angle_gamma        89.9964
_cell_volume          1150.289136
_space_group_crystal_system monoclinic
_space_group_IT_number 7
_space_group_name_H-M_alt 'Pc'
_space_group_name_Hall 'P -2yc'
loop_
_symmetry_equiv_pos_site_id
_symmetry_equiv_pos_as_xyz
 1 'x,y,z'
 2 '-1/2-x,y,-1/2+z'
loop_
_atom_site_label
_atom_site_type_symbol
_atom_site_fract_x
_atom_site_fract_y
_atom_site_fract_z
H1    H     0.31960004996974 0.93339537055234 0.99189517996076 
H2    H     0.68041271013625 0.06635416078722 0.49192138011000 
H3    H     0.39783538996764 0.72522518045516 0.87746503998847 
H4    H     0.60217429979270 0.27438711081809 0.37745601988695 
H5    H     0.50070332996241 0.47642570003293 0.93471788976435 
H6    H     0.49929484978666 0.52282131127144 0.43460847034548 
H7    H     0.52638744005360 0.49780043116326 0.10861463987418 
H8    H     0.47360161991799 0.50192451058476 0.60858513006776 
H9    H     0.50306850993025 0.69438610085424 0.26925271035856 
H10   H     0.49696191979475 0.30604524922297 0.76926470005512 
H11   H     0.25612897983376 0.62881937927784 0.04681324030962 
H12   H     0.74386658985651 0.37117639076976 0.54681232030460 
H13   H     0.43142192999985 0.99746388891373 0.38230909011060 
H14   H     0.56862181010881 0.00328170053983 0.88237047970568 
H15   H     0.33162157013234 0.24721103057471 0.42092794017373 
H16   H     0.66841771004119 0.75346190965597 0.92099937994706 
H17   H     0.21831333011937 0.35834767087638 0.38439203020351 
H18   H     0.78169969991904 0.64169067901624 0.88437388014859 
H19   H     0.14179415015123 0.67060637095320 0.02548919984369 
H20   H     0.85820147980807 0.32952979090512 0.52549262978839 
H21   H     0.12645274001700 0.24620618886057 0.28746969984223 
H22   H     0.87354521986903 0.75348825011149 0.78739013984631 
H23   H     0.07514129988588 0.98822131068699 0.14394525006878 
H24   H     0.92485519984509 0.01165895914892 0.64389812995941 
C1    C     0.36305295017513 0.82103487040222 0.01924171003227 
C2    C     0.63695809980946 0.17875388959219 0.51924382987817 
C3    C     0.37427905019351 0.81426973963810 0.11968512975583 
C4    C     0.62572788984008 0.18568532095409 0.61968589988270 
C5    C     0.32850020990171 0.92309901985880 0.19123025995311 
C6    C     0.67150584009579 0.07696022977343 0.69123454964604 
C7    C     0.40784866997114 0.70668712077339 0.95405384016459 
C8    C     0.59216387014040 0.29298250096100 0.45404621023854 
C9    C     0.43656962995879 0.71509121015486 0.15035111995141 
C10   C     0.56343850012765 0.28493938060375 0.65034205003424 
C11   C     0.26055213021600 0.94035180011451 0.17550322001115 
C12   C     0.73945093996577 0.05958208887142 0.67548386033015 
C13   C     0.35177588020570 0.00998117958524 0.28379066966086 
C14   C     0.64824609984209 0.99034479877213 0.78382264999831 
C15   C     0.46624178989602 0.57462171044203 0.98596104017222 
C16   C     0.53375624988576 0.42496967103244 0.48593300013321 
C17   C     0.48032571986111 0.58365212087276 0.08275115996292 
C18   C     0.51966919999350 0.41614182919890 0.58272106997824 
C19   C     0.22120113001306 0.09994974970044 0.24670406028660 
C20   C     0.77880093977584 0.89993643030473 0.74666857024245 
C21   C     0.45540595004197 0.76990838064716 0.24749964015783 
C22   C     0.54461892001134 0.23041923117797 0.74750955017526 
C23   C     0.22915829017334 0.78260277939158 0.09701375981186 
C24   C     0.77084042011210 0.21736215940002 0.59699818991409 
C25   C     0.41565913984696 0.93222304890306 0.30999509034657 
C26   C     0.58437310008582 0.06828390957803 0.81003349991441 
C27   C     0.31131008984049 0.17046868116677 0.35235788022557 
C28   C     0.68871561021722 0.82990263121508 0.85239406983451 
C29   C     0.24870570013917 0.22660108962010 0.33309690020731 
C30   C     0.75130517020542 0.77346472034858 0.83308902032752 
C31   C     0.16403347990991 0.80009019988172 0.08593019021744 
C32   C     0.83596446980747 0.19991188097925 0.58591110966109 
C33   C     0.15478409994781 0.11774590070871 0.23292330017680 
C34   C     0.84521503996734 0.88205014914299 0.73286485982979 
C35   C     0.12632441021161 0.97368634966714 0.15342725035544 
C36   C     0.87367282983912 0.02620426887652 0.65338308998088 
