data_stdin
_audit_creation_method 'critic2'
_audit_creation_date 2023-8-11
_chemical_formula_sum 'C18 H12'
_cell_formula_units_Z 8
_cell_length_a        17.2075523716
_cell_length_b         6.9658611811
_cell_length_c        20.8834236227
_cell_angle_alpha        90.0007
_cell_angle_beta        73.9070
_cell_angle_gamma        90.0009
_cell_volume          2405.107825
_space_group_crystal_system monoclinic
_space_group_IT_number 15
_space_group_name_H-M_alt 'C2/c'
_space_group_name_Hall '-C 2yc'
loop_
_symmetry_equiv_pos_site_id
_symmetry_equiv_pos_as_xyz
 1 'x,y,z'
 2 '-1/2-x,-1/2-y,-z'
 3 '-x,y,-1/2-z'
 4 'x,-y,-1/2+z'
 5 '-1/2+x,-1/2+y,z'
 6 '-x,-y,-z'
 7 '-1/2-x,-1/2+y,-1/2-z'
 8 '-1/2+x,-1/2-y,-1/2+z'
loop_
_atom_site_label
_atom_site_type_symbol
_atom_site_fract_x
_atom_site_fract_y
_atom_site_fract_z
H1    H     0.33362547995383 0.60635425967282 0.74840227990822 
H2    H     0.28341408011897 0.65867720001899 0.65165824991078 
H3    H     0.13734236003845 0.72917278040885 0.66538207004060 
H4    H     0.04154297989442 0.72714542033139 0.77951487983857 
H5    H     0.01239905987434 0.66852716040481 0.89696949022787 
H6    H     0.37474125994671 0.81028635051710 0.79742177019325 
H7    H     0.05840186021591 0.56787900977947 0.99475955975501 
H8    H     0.16085196002951 0.47206414034898 0.04361400980657 
H9    H     0.30510739031277 0.42576298929772 0.03879044987710 
H10   H     0.51502178032402 0.81095133975301 0.80348750978838 
H11   H     0.44604736005659 0.47332208021541 0.98249982996002 
H12   H     0.55403952979609 0.62762863967439 0.89222516991715 
C1    C     0.27036328006943 0.64266093043902 0.75636999991361 
C2    C     0.21829865988617 0.64972161024398 0.82225919023487 
C3    C     0.24499069996874 0.61865972954998 0.88153535009100 
C4    C     0.24162576011768 0.66785569022125 0.70135877980408 
C5    C     0.13343756017070 0.67122540027576 0.82913746985771 
C6    C     0.32844117998491 0.62782746958902 0.88357690979188 
C7    C     0.18548947020899 0.57327532069423 0.94181075003445 
C8    C     0.15907230990938 0.70411445937649 0.70891518977244 
C9    C     0.10607123981142 0.70435068041220 0.77210204020290 
C10   C     0.34966055986134 0.54669589980833 0.93963183978974 
C11   C     0.07640382983629 0.64835832932993 0.89279750016110 
C12   C     0.39038221019054 0.72649752062850 0.83588779976307 
C13   C     0.10161306976295 0.59325269061745 0.94648409987671 
C14   C     0.20843281987472 0.50713463963618 0.99860554979166 
C15   C     0.28780808005957 0.48389958943339 0.99633007018290 
C16   C     0.46943036982328 0.72914898985027 0.83972589995850 
C17   C     0.43161366968954 0.54210225052192 0.94036173023522 
C18   C     0.49126294023811 0.62951162969999 0.89078617989841 
