data_stdin
_audit_creation_method 'critic2'
_audit_creation_date 2023-8-11
_chemical_formula_sum 'C18 H12'
_cell_formula_units_Z 4
_cell_length_a         8.1224735149
_cell_length_b        37.6087267146
_cell_length_c         3.8495425928
_cell_angle_alpha        89.8447
_cell_angle_beta        89.9966
_cell_angle_gamma        90.0011
_cell_volume          1175.938113
_space_group_crystal_system monoclinic
_space_group_IT_number 4
_space_group_name_H-M_alt 'P2_1'
_space_group_name_Hall 'P 2yb'
loop_
_symmetry_equiv_pos_site_id
_symmetry_equiv_pos_as_xyz
 1 'x,y,z'
 2 '-1/2+x,-1/2-y,-z'
loop_
_atom_site_label
_atom_site_type_symbol
_atom_site_fract_x
_atom_site_fract_y
_atom_site_fract_z
H1    H     0.89043461963861 0.34503602992176 0.75354190107142 
H2    H     0.10943699977053 0.84497009004108 0.74667877997540 
H3    H     0.84444059995260 0.28110665002981 0.70919654952913 
H4    H     0.15516739990473 0.78099534990528 0.78944477050167 
H5    H     0.08064081967729 0.23872546001452 0.73519292904502 
H6    H     0.91877184027446 0.73868174990931 0.76271039095550 
H7    H     0.36548928988196 0.26246989009220 0.76674737085487 
H8    H     0.63403383006100 0.76250481994170 0.73192700099851 
H9    H     0.55612419020338 0.31165085998264 0.76450837074557 
H10   H     0.44361335945612 0.81172380989177 0.73528010924173 
H11   H     0.88956985040806 0.37136833993309 0.18728811009252 
H12   H     0.11038317000099 0.87158391992129 0.31295795109757 
H13   H     0.60796440051931 0.37647168010208 0.72223668974898 
H14   H     0.39208028946311 0.87652499000206 0.77895606970053 
H15   H     0.51260174964842 0.43648070004090 0.69439309921176 
H16   H     0.48768890024085 0.93649899001207 0.80705694946089 
H17   H     0.28974912992578 0.48122516995006 0.72955912907374 
H18   H     0.71072430953656 0.98122418005329 0.77207239967849 
H19   H     0.68103337005177 0.41712079004266 0.27955824126796 
H20   H     0.31913030978376 0.91735147995915 0.22134940964592 
H21   H     0.00795860040781 0.49642776994934 0.86342611080900 
H22   H     0.99251733055391 0.99645778012208 0.63824087021447 
H23   H     0.73295466999708 0.47997689011101 0.09742120936533 
H24   H     0.26748201965593 0.98010147003400 0.40415799958110 
C1    C     0.99526431962338 0.32731179987081 0.77572744092010 
C2    C     0.00453723954014 0.82728139994363 0.72402304006649 
C3    C     0.15534613056200 0.34179872990126 0.81769580897313 
C4    C     0.84451697053974 0.84182798006771 0.68231909974275 
C5    C     0.18892062957749 0.37950851003210 0.84975247001839 
C6    C     0.81109969950489 0.87956567011410 0.65083975998853 
C7    C     0.96902519944703 0.29114772992407 0.74503717950469 
C8    C     0.03062615040402 0.79108883005160 0.75386032993630 
C9    C     0.29070675989292 0.31739311999249 0.79698934968235 
C10   C     0.70904793039880 0.81743501995323 0.70260578911423 
C11   C     0.06609878056664 0.40604972999635 0.93444511891607 
C12   C     0.93401837982976 0.90613600005625 0.56632296099149 
C13   C     0.35226102036934 0.39134027988825 0.78644543126034 
C14   C     0.64782503045083 0.89138689992529 0.71447612119697 
C15   C     0.10227644948385 0.26725016996051 0.75445055055879 
C16   C     0.89726863031411 0.76722494008550 0.74398569004581 
C17   C     0.26045092980623 0.28042995988822 0.77509406941262 
C18   C     0.73914610960412 0.78045048003039 0.72373910127622 
C19   C     0.10222038957114 0.44284205991613 0.87220494052217 
C20   C     0.89805944952029 0.94289540995157 0.62896664883937 
C21   C     0.45483810011707 0.33061898009039 0.77782891916836 
C22   C     0.54498164024613 0.83068115989032 0.72221050904994 
C23   C     0.91345758017442 0.39819555995890 0.09596576977665 
C24   C     0.08661252995722 0.89835552003706 0.40463992984913 
C25   C     0.48346265985439 0.36630208998970 0.75659209048211 
C26   C     0.51652315060442 0.86635473994989 0.74418199046013 
C27   C     0.38644753987014 0.42838427003945 0.74889654929800 
C28   C     0.61380016970078 0.92841300002599 0.75240272096580 
C29   C     0.26411076058520 0.45312710001514 0.77203119938826 
C30   C     0.73623180981520 0.95314740010406 0.72937152935946 
C31   C     0.79677563003222 0.42423840991638 0.15549387042646 
C32   C     0.20341435020098 0.92441318007234 0.34546653034967 
C33   C     0.97900350999487 0.46883043009269 0.92595016896453 
C34   C     0.02137244049798 0.96889511991755 0.57545039122816 
C35   C     0.82688247031125 0.45974078992376 0.05883088117078 
C36   C     0.17346490055569 0.95985946000600 0.44253178041134 
