data_stdin
_audit_creation_method 'critic2'
_audit_creation_date 2023-8-11
_chemical_formula_sum 'C18 H12'
_cell_formula_units_Z 4
_cell_length_a        14.9963693725
_cell_length_b        19.5769423007
_cell_length_c         3.8738632741
_cell_angle_alpha        89.9977
_cell_angle_beta        90.0002
_cell_angle_gamma        89.9919
_cell_volume          1137.300614
_space_group_crystal_system orthorhombic
_space_group_IT_number 33
_space_group_name_H-M_alt 'Pna2_1'
_space_group_name_Hall 'P 2c -2n'
loop_
_symmetry_equiv_pos_site_id
_symmetry_equiv_pos_as_xyz
 1 'x,y,z'
 2 '-x,-y,-1/2+z'
 3 '-1/2-x,-1/2+y,-1/2+z'
 4 '-1/2+x,-1/2-y,z'
loop_
_atom_site_label
_atom_site_type_symbol
_atom_site_fract_x
_atom_site_fract_y
_atom_site_fract_z
H1    H     0.27123251979097 0.21685871999078 0.00290528934821 
H2    H     0.20412762013663 0.10691869024485 0.13381695944635 
H3    H     0.29985476996734 0.00411942986620 0.23768902948209 
H4    H     0.46381419012715 0.01397071990786 0.16379854897321 
H5    H     0.59472791015093 0.07889100017444 0.01552436093286 
H6    H     0.30130192982668 0.28221319991384 0.35083908873108 
H7    H     0.66169836991065 0.18548007018962 0.78856584972004 
H8    H     0.65025696023842 0.30219199012244 0.61698020033820 
H9    H     0.57257858981625 0.41360896986741 0.63421467941330 
H10   H     0.23609551974061 0.39518983993004 0.41869134986276 
H11   H     0.45263130025729 0.48335571005662 0.84209744887853 
H12   H     0.30966514985868 0.49768769985960 0.16348891899912 
C1    C     0.31488247014649 0.17402390017638 0.05765582036578 
C2    C     0.40862644032562 0.18283375993271 0.03848253034366 
C3    C     0.45223148994541 0.24774518011059 0.97323151975875 
C4    C     0.27653822978149 0.11122019989842 0.12689753949679 
C5    C     0.46199864982998 0.12218418024431 0.06272900872679 
C6    C     0.41159562978455 0.31416001986988 0.02625580967522 
C7    C     0.54181732022160 0.24595620007142 0.85390263890551 
C8    C     0.33026242016267 0.05326082983708 0.17926129025712 
C9    C     0.42143325030926 0.05891890003310 0.14210202101814 
C10   C     0.45632407000648 0.37401883992268 0.90030082910997 
C11   C     0.55491834002815 0.12511453002581 0.98746729035937 
C12   C     0.33231642967274 0.32491208007366 0.21905652003225 
C13   C     0.59190788987960 0.18405837985467 0.86632250897327 
C14   C     0.58364127992316 0.30635069015237 0.72718326072217 
C15   C     0.54113569001715 0.36790831018242 0.73808970890856 
C16   C     0.29622076017290 0.38929905982862 0.26412316935667 
C17   C     0.41763352994266 0.43925276995512 0.94748874992989 
C18   C     0.33833174968958 0.44718242013424 0.12377814098027 
