data_stdin
_audit_creation_method 'critic2'
_audit_creation_date 2023-8-11
_chemical_formula_sum 'C18 H12'
_cell_formula_units_Z 4
_cell_length_a         5.7451789246
_cell_length_b        14.5607260400
_cell_length_c        14.0027722894
_cell_angle_alpha        90.0002
_cell_angle_beta        86.9761
_cell_angle_gamma        90.0014
_cell_volume          1169.756551
_space_group_crystal_system triclinic
_space_group_IT_number 1
_space_group_name_H-M_alt 'P 1'
_space_group_name_Hall 'P 1'
loop_
_symmetry_equiv_pos_site_id
_symmetry_equiv_pos_as_xyz
 1 'x,y,z'
loop_
_atom_site_label
_atom_site_type_symbol
_atom_site_fract_x
_atom_site_fract_y
_atom_site_fract_z
H1    H     0.99187280969414 0.40389271030988 0.99811683009481 
H2    H     0.49187242933256 0.90389271992136 0.99811696007250 
H3    H     0.99187278062208 0.59610822018961 0.49811693979690 
H4    H     0.49187276037955 0.09610824972104 0.49811706028279 
H5    H     0.27192583950727 0.47807512026824 0.09888917009655 
H6    H     0.77192542062369 0.97807519031589 0.09888927982511 
H7    H     0.27192367926177 0.52192598992799 0.59889081015802 
H8    H     0.77192369913632 0.02192604006317 0.59889093014653 
H9    H     0.61080378937774 0.39089705021737 0.15633751026666 
H10   H     0.11080364931313 0.89089721023556 0.15633750986281 
H11   H     0.61080533059507 0.60910379014756 0.65633719967105 
H12   H     0.11080541056474 0.10910384028324 0.65633725986748 
H13   H     0.64447897033625 0.22377147011163 0.12080621999697 
H14   H     0.14447912005890 0.72377165004904 0.12080616033513 
H15   H     0.64448186977884 0.77622988999308 0.62080560002169 
H16   H     0.14448198027687 0.27622992982729 0.62080560026515 
H17   H     0.48579289983893 0.08458519033409 0.05984842006381 
H18   H     0.98579319066838 0.58458534005455 0.05984835973825 
H19   H     0.48578771035305 0.91541604012314 0.55985262984552 
H20   H     0.98578783946410 0.41541606004089 0.55985259011083 
H21   H     0.03369979955944 0.40389376998415 0.85781362972385 
H22   H     0.53369950081170 0.90389385033462 0.85781375012593 
H23   H     0.03369985009910 0.59610526014746 0.35781370978997 
H24   H     0.53369981942121 0.09610524984562 0.35781383021898 
H25   H     0.17781493051304 0.00318916968903 0.97409111997002 
H26   H     0.67781532034842 0.50318925966064 0.97409105016316 
H27   H     0.17781576005022 0.99681125971206 0.47409142021039 
H28   H     0.67781588045053 0.49681127001482 0.47409136969274 
H29   H     0.84779823944077 0.00318686015730 0.88183393030907 
H30   H     0.34779863087108 0.50318688969236 0.88183383975536 
H31   H     0.84779903978871 0.99681266015992 0.38183424972348 
H32   H     0.34779913946259 0.49681264985913 0.38183421984840 
H33   H     0.53982335083760 0.08457863002590 0.79607061983568 
H34   H     0.03982358963451 0.58457861972640 0.79607057998201 
H35   H     0.53981809045667 0.91542006033068 0.29607487005201 
H36   H     0.03981812990580 0.41542003972770 0.29607488994843 
H37   H     0.75363634985932 0.47807270015978 0.75704366965805 
H38   H     0.25363595051058 0.97807275990597 0.75704382028795 
H39   H     0.75363417969921 0.52192613013136 0.25704534975106 
H40   H     0.25363414045480 0.02192609029795 0.25704548015324 
H41   H     0.38110977025929 0.22376176982844 0.73512343994398 
H42   H     0.88110975071915 0.72376174991171 0.73512348027484 
H43   H     0.38111237963063 0.77623676030964 0.23512300021862 
H44   H     0.88111235015891 0.27623671978948 0.23512306983921 
H45   H     0.41476024077547 0.39088919972707 0.69959751998752 
H46   H     0.91475998027589 0.89088921002644 0.69959762986199 
H47   H     0.41476155948957 0.60910987989428 0.19959736996348 
H48   H     0.91476153053624 0.10910982975927 0.19959747966624 
C1    C     0.14114225980352 0.36494444973923 0.01982994998733 
C2    C     0.64114197991336 0.86494451017326 0.01983003971674 
C3    C     0.14114277056813 0.63505638984920 0.51983025026543 
C4    C     0.64114276918321 0.13505642006756 0.51983034007869 
C5    C     0.16572192056677 0.27163272982811 0.99168658991237 
C6    C     0.66572182971866 0.77163279987875 0.99168662985546 
C7    C     0.16572409022172 0.72836789001324 0.49168631972712 
C8    C     0.66572410920367 0.22836790993007 0.49168638030735 
C9    C     0.01279357016756 0.22537136033979 0.92796471995049 
C10   C     0.51279355049789 0.72537142008941 0.92796475026099 
C11   C     0.01279759933777 0.77462861018854 0.42796361966447 
C12   C     0.51279762005892 0.27462861980370 0.42796368025414 
C13   C     0.29712634070751 0.40652399999889 0.07818636973220 
C14   C     0.79712603957256 0.90652408996419 0.07818644002211 
C15   C     0.29712606947845 0.59347691996293 0.57818710966948 
C16   C     0.79712609939951 0.09347695979649 0.57818719965311 
C17   C     0.34428668971393 0.21977016021101 0.03505868016318 
C18   C     0.84428673933931 0.71977027009611 0.03505868007561 
C19   C     0.34428789947474 0.78023095026734 0.53505916013935 
C20   C     0.84428797022988 0.28023097018461 0.53505918020621 
C21   C     0.85986422981084 0.27163030997319 0.86424282028117 
C22   C     0.35986413922189 0.77163034980559 0.86424288026528 
C23   C     0.85986637042064 0.72836900981675 0.36424259002572 
C24   C     0.35986636008037 0.22836900020183 0.36424265975048 
C25   C     0.01279744913352 0.12775842980542 0.92796468020157 
C26   C     0.51279761005435 0.62775849024346 0.92796466998388 
C27   C     0.01280212924521 0.87224154011415 0.42796308966114 
C28   C     0.51280218943541 0.37224154011472 0.42796309965062 
C29   C     0.48700455072834 0.35712932980126 0.11169582989780 
C30   C     0.98700440037261 0.85712946990278 0.11169585019330 
C31   C     0.48700533995020 0.64287164022459 0.61169605024786 
C32   C     0.98700540078845 0.14287168967331 0.61169611034020 
C33   C     0.50637226021182 0.26465861023362 0.09162705990897 
C34   C     0.00637227989630 0.76465875033669 0.09162704033457 
C35   C     0.50637390920027 0.73534249999284 0.59162713013391 
C36   C     0.00637399039075 0.23534253982680 0.59162715025759 
C37   C     0.68130576940633 0.21976474989247 0.82086877008393 
C38   C     0.18130576041651 0.71976476019411 0.82086880975656 
C39   C     0.68130688964258 0.78023408004416 0.32086931973230 
C40   C     0.18130688949306 0.28023406012763 0.32086938020835 
C41   C     0.34992426059717 0.12245538981447 0.02545296978145 
C42   C     0.84992446995703 0.62245551000271 0.02545293978778 
C43   C     0.34992370049973 0.87754573968713 0.52545425034859 
C44   C     0.84992380054779 0.37754574998974 0.52545423979958 
C45   C     0.88443355009602 0.36494314031721 0.83610016997964 
C46   C     0.38443331046714 0.86494320006485 0.83610027996779 
C47   C     0.88443405068530 0.63505596019093 0.33610049024415 
C48   C     0.38443403029851 0.13505594027425 0.33610058997375 
C49   C     0.18260346015501 0.07785892003711 0.97772874993807 
C50   C     0.68260370938733 0.57785901000744 0.97772871014142 
C51   C     0.18260542961826 0.92214161009600 0.47772833008990 
C52   C     0.68260552072565 0.42214161971173 0.47772831018810 
C53   C     0.84300156024157 0.07785639982461 0.87819834999863 
C54   C     0.34300180947383 0.57785643004517 0.87819831020185 
C55   C     0.84300350040081 0.92214301001743 0.37819795004008 
C56   C     0.34300356915751 0.42214299971639 0.37819795005631 
C57   C     0.67568066962829 0.12245029983937 0.83047164967916 
C58   C     0.17568083030450 0.62245031014254 0.83047163015589 
C59   C     0.67568003018180 0.87754850989632 0.33047297993257 
C60   C     0.17568006963095 0.37754850028180 0.33047299982902 
C61   C     0.72844390060232 0.40652077988028 0.77774523990699 
C62   C     0.22844361055065 0.90652083001256 0.77774536035631 
C63   C     0.72844357958797 0.59347824013949 0.27774602968346 
C64   C     0.22844355064928 0.09347820992107 0.27774615012189 
C65   C     0.51921285955001 0.26465145019126 0.76430224977271 
C66   C     0.01921278983168 0.76465145019067 0.76430230987028 
C67   C     0.51921433967553 0.73534735995405 0.26430245008126 
C68   C     0.01921432076874 0.23534732012078 0.26430252977918 
C69   C     0.53856874940506 0.35712276998593 0.74423623012357 
C70   C     0.03856853921328 0.85712278028576 0.74423633025192 
C71   C     0.53856936987812 0.64287616982738 0.24423657983992 
C72   C     0.03856934937633 0.14287612999412 0.24423668028455 
