data_stdin
_audit_creation_method 'critic2'
_audit_creation_date 2023-8-11
_chemical_formula_sum 'C18 H12'
_cell_formula_units_Z 4
_cell_length_a         7.0712210479
_cell_length_b         9.0926909431
_cell_length_c        19.0766891199
_cell_angle_alpha        90.0015
_cell_angle_beta        79.3295
_cell_angle_gamma        90.0001
_cell_volume          1205.353478
_space_group_crystal_system monoclinic
_space_group_IT_number 14
_space_group_name_H-M_alt 'P2_1/c'
_space_group_name_Hall '-P 2ybc'
loop_
_symmetry_equiv_pos_site_id
_symmetry_equiv_pos_as_xyz
 1 'x,y,z'
 2 '-x,-y,-z'
 3 '-x,-1/2+y,-1/2-z'
 4 'x,-1/2-y,-1/2+z'
loop_
_atom_site_label
_atom_site_type_symbol
_atom_site_fract_x
_atom_site_fract_y
_atom_site_fract_z
H1    H     0.74639896952685 0.26169952997702 0.16082352996340 
H2    H     0.80644137039974 0.03730964002123 0.09043728988772 
H3    H     0.86633446006039 0.04664817045761 0.95758525022683 
H4    H     0.84009601991649 0.28579428984283 0.89660567021685 
H5    H     0.75421798064697 0.54173903956486 0.90180663976248 
H6    H     0.95624811948034 0.38582432958441 0.18643836973418 
H7    H     0.62185739021123 0.75961996957154 0.97343199021282 
H8    H     0.52432783957147 0.88046880031679 0.08590836015273 
H9    H     0.51922437969720 0.89903982950430 0.21553903984389 
H10   H     0.99981144050922 0.43049820033327 0.30803945997783 
H11   H     0.63143747960809 0.81096323039236 0.32097966023978 
H12   H     0.83029519028340 0.64033521018879 0.37867769983619 
C1    C     0.77567118024718 0.27041706948381 0.10305843015201 
C2    C     0.76925940939061 0.40956779993947 0.07007060015898 
C3    C     0.73096984996665 0.54602962044854 0.10934467020773 
C4    C     0.80808573040914 0.14267022020229 0.06326156003034 
C5    C     0.78445191049505 0.41173200972138 0.99408235992361 
C6    C     0.75890234017979 0.56746808953295 0.18202784984188 
C7    C     0.66326600953687 0.66711723977311 0.07408102994396 
C8    C     0.83855550070810 0.14772059004251 0.98826651988893 
C9    C     0.82591962003625 0.28057655028577 0.95441109994017 
C10   C     0.67719612969167 0.69497772045252 0.22064122998906 
C11   C     0.74220315986854 0.54341542037665 0.95952256000893 
C12   C     0.87774531985306 0.47585971982125 0.21582445020147 
C13   C     0.67247881944946 0.66363121005822 0.99873526013553 
C14   C     0.58568984936930 0.79326667950935 0.11382718988517 
C15   C     0.58393959006205 0.80411033035581 0.18538795975549 
C16   C     0.90386976010214 0.50185389946921 0.28488069998607 
C17   C     0.69962981939790 0.71556583977699 0.29222435991867 
C18   C     0.80988774924689 0.62034816035627 0.32432643008620 
