data_stdin
_audit_creation_method 'critic2'
_audit_creation_date 2023-8-11
_chemical_formula_sum 'C18 H12'
_cell_formula_units_Z 8
_cell_length_a        31.1875556451
_cell_length_b         3.8372806689
_cell_length_c        21.0397418266
_cell_angle_alpha        90.0178
_cell_angle_beta        67.0472
_cell_angle_gamma        89.9994
_cell_volume          2318.585183
_space_group_crystal_system triclinic
_space_group_IT_number 2
_space_group_name_H-M_alt 'P-1'
_space_group_name_Hall '-P 1'
loop_
_symmetry_equiv_pos_site_id
_symmetry_equiv_pos_as_xyz
 1 'x,y,z'
 2 '-x,-y,-z'
 3 '-1/2+x,-1/2+y,z'
 4 '-1/2-x,-1/2-y,-z'
loop_
_atom_site_label
_atom_site_type_symbol
_atom_site_fract_x
_atom_site_fract_y
_atom_site_fract_z
H1    H     0.04402910000471 0.02886594009201 0.99098390992453 
H2    H     0.95597691979140 0.02922679120611 0.50893632023136 
H3    H     0.98345832003426 0.21713109899061 0.10015039001433 
H4    H     0.01648875007196 0.21837132949489 0.39981787995067 
H5    H     0.00479242989272 0.47214804881739 0.19302990999177 
H6    H     0.99505593981747 0.47451096029360 0.30713627019497 
H7    H     0.08771050999044 0.47815586071527 0.17839995996475 
H8    H     0.91212158980352 0.47977766984440 0.32182998021704 
H9    H     0.16841793012394 0.31746653964264 0.11363920989962 
H10   H     0.83146806994365 0.31765861073679 0.38651976016981 
H11   H     0.07117996009894 0.36670198920696 0.91573233984064 
H12   H     0.92880713009368 0.36705150052273 0.58426196006071 
H13   H     0.22754267998737 0.02464246062854 0.01224688009939 
H14   H     0.77241306987299 0.02433160926822 0.48785419002403 
H15   H     0.25271049009593 0.78804769100190 0.89846553020834 
H16   H     0.74729305008615 0.78786677890993 0.60163024005030 
H17   H     0.24110547988985 0.69096302012508 0.78994810010143 
H18   H     0.75895926982219 0.69091894025798 0.71009541018605 
H19   H     0.06618006010798 0.33860392081716 0.80331184008169 
H20   H     0.93388160006826 0.33891479084329 0.69663814999545 
H21   H     0.19681999995085 0.79110547907100 0.72002374976301 
H22   H     0.80329938985263 0.79104432069642 0.77996210018881 
H23   H     0.12815739011687 0.04334845994100 0.70405643981894 
H24   H     0.87197679007519 0.04346002021425 0.79587664986926 
C1    C     0.05428265981371 0.14700140946726 0.02979670023369 
C2    C     0.94568564995987 0.14757300122799 0.47019243008452 
C3    C     0.10222354010750 0.17223570018623 0.01749315014454 
C4    C     0.89773441988177 0.17258224962620 0.48254865988370 
C5    C     0.13958256006354 0.07905973025238 0.95272377985751 
C6    C     0.86040376995354 0.07915867126580 0.54731321021958 
C7    C     0.01995425998064 0.24911609041102 0.09181249016428 
C8    C     0.97998163003071 0.25024621908778 0.40820431986231 
C9    C     0.11357197994237 0.27488067070736 0.07461897994974 
C10   C     0.88634408985391 0.27538952079517 0.42548229005053 
C11   C     0.13515017981293 0.06897119970617 0.88671191021076 
C12   C     0.86486776008270 0.06909011022249 0.61330084981150 
C13   C     0.18378344011722 0.00269696934521 0.95392922000749 
C14   C     0.81619888984771 0.00264730918423 0.54613574016764 
C15   C     0.03186051989261 0.38435487030334 0.14491311998208 
C16   C     0.96802467993986 0.38590341083190 0.35520100998478 
C17   C     0.07798365020924 0.39147583086556 0.13654734978403 
C18   C     0.92189217994012 0.39270297019481 0.36360420019631 
C19   C     0.17227038004353 0.92342474896114 0.82807899987400 
C20   C     0.82778031982503 0.92346571877628 0.67193344017664 
C21   C     0.16012375003676 0.23558784991704 0.07014486990053 
C22   C     0.83979325008516 0.23572502908163 0.42997540002669 
C23   C     0.09761635990152 0.22250010090516 0.87468779004967 
C24   C     0.90240715993833 0.22272180067504 0.62530132007311 
C25   C     0.19292344995671 0.07988975095034 0.01377312999623 
C26   C     0.80702905007067 0.07978264901170 0.48632168012579 
C27   C     0.21992701986551 0.85855596031646 0.89464787008187 
C28   C     0.78008305016098 0.85845766103940 0.60542066989075 
C29   C     0.21376630005236 0.80759902985839 0.83456858983657 
C30   C     0.78627761998406 0.80757223116465 0.66547145004031 
C31   C     0.09522231987985 0.21256019993795 0.81048742014473 
C32   C     0.90484008997625 0.21276918960052 0.68947378006228 
C33   C     0.16856317002092 0.91130927014785 0.76317444005935 
C34   C     0.83152792010751 0.91134894933188 0.73681159980539 
C35   C     0.13047962979988 0.05067988031476 0.75432127020871 
C36   C     0.86961860999772 0.05079516090125 0.74563696979551 
