data_stdin
_audit_creation_method 'critic2'
_audit_creation_date 2023-8-11
_chemical_formula_sum 'C18 H12'
_cell_formula_units_Z 2
_cell_length_a         9.7270026489
_cell_length_b         5.8315736182
_cell_length_c        11.1360875210
_cell_angle_alpha        74.6381
_cell_angle_beta       100.1822
_cell_angle_gamma        85.4797
_cell_volume           594.241968
_space_group_crystal_system triclinic
_space_group_IT_number 2
_space_group_name_H-M_alt 'P-1'
_space_group_name_Hall '-P 1'
loop_
_symmetry_equiv_pos_site_id
_symmetry_equiv_pos_as_xyz
 1 'x,y,z'
 2 '-x,-y,-z'
loop_
_atom_site_label
_atom_site_type_symbol
_atom_site_fract_x
_atom_site_fract_y
_atom_site_fract_z
H1    H     0.99587294015591 0.35810633035702 0.45043711981058 
H2    H     0.85929629998061 0.03609538931084 0.51827342021919 
H3    H     0.62961908016823 0.01166093997301 0.38294873955428 
H4    H     0.53139977005375 0.34473918968616 0.18612257013250 
H5    H     0.54436909971912 0.72908870981982 0.04218945007447 
H6    H     0.13458548953650 0.33752060982641 0.34819999967447 
H7    H     0.66644184041935 0.08876728046484 0.98653282013727 
H8    H     0.85889377013936 0.30266660073601 0.02171993991290 
H9    H     0.10897567037287 0.31192386979432 0.11403333013326 
H10   H     0.38808861001636 0.33973485068144 0.40705885973822 
H11   H     0.33563592962063 0.10077786001724 0.23068187026568 
H12   H     0.49244941938938 0.72039527067141 0.35304181963692 
C1    C     0.89839363038886 0.35213885038629 0.38736355972497 
C2    C     0.85107206983132 0.53590500064539 0.27127980029921 
C3    C     0.93080781011802 0.72817213981902 0.22342530967526 
C4    C     0.81992829024105 0.16921095962659 0.42690170954307 
C5    C     0.71185889020078 0.53536455012665 0.20191926005464 
C6    C     0.08186928047365 0.72150479028141 0.26268491989147 
C7    C     0.85633201032261 0.93486314003988 0.12817764016890 
C8    C     0.68919221950049 0.15908770972636 0.35230442971277 
C9    C     0.63556459039453 0.34236691902351 0.24243296028817 
C10   C     0.14442661977212 0.93710769080585 0.22388855984668 
C11   C     0.64886183021876 0.73436720057924 0.09535522958875 
C12   C     0.17556788950163 0.50802804084494 0.32801396979953 
C13   C     0.71599810000413 0.93208209039380 0.06458785984042 
C14   C     0.92190874987272 0.14531965998383 0.09141799965206 
C15   C     0.05973734997321 0.14996937991337 0.14135273987332 
C16   C     0.31956503993992 0.50822767911319 0.35972446013691 
C17   C     0.29185262994030 0.93359331097873 0.26086012967786 
C18   C     0.37878225979977 0.72339534031575 0.32844754986305 
