data_stdin
_audit_creation_method 'critic2'
_audit_creation_date 2023-8-11
_chemical_formula_sum 'C18 H12'
_cell_formula_units_Z 4
_cell_length_a         9.8276056477
_cell_length_b         8.6694875328
_cell_length_c        14.3608007199
_cell_angle_alpha        89.9983
_cell_angle_beta        75.4140
_cell_angle_gamma        90.0004
_cell_volume          1184.110508
_space_group_crystal_system monoclinic
_space_group_IT_number 14
_space_group_name_H-M_alt 'P2_1/c'
_space_group_name_Hall '-P 2ybc'
loop_
_symmetry_equiv_pos_site_id
_symmetry_equiv_pos_as_xyz
 1 'x,y,z'
 2 '-x,-y,-z'
 3 '-x,-1/2+y,-1/2-z'
 4 'x,-1/2-y,-1/2+z'
loop_
_atom_site_label
_atom_site_type_symbol
_atom_site_fract_x
_atom_site_fract_y
_atom_site_fract_z
H1    H     0.68791911062117 0.96325195019020 0.32075989804086 
H2    H     0.83488325015556 0.73709488446695 0.26572705424483 
H3    H     0.05458189580256 0.76024332778052 0.13449871660341 
H4    H     0.11499009149567 0.01091880775927 0.05134870425909 
H5    H     0.05804538744409 0.27516905430343 0.02496189311567 
H6    H     0.70869100150091 0.10705585599734 0.42591753805872 
H7    H     0.88825856549189 0.49351061731488 0.05979384449793 
H8    H     0.67430373215051 0.60814226997411 0.15113625176286 
H9    H     0.46440900162900 0.60484134130338 0.28877170242534 
H10   H     0.51659486918246 0.13104607994662 0.57018903263132 
H11   H     0.33038541903136 0.49077806149696 0.43649784273806 
H12   H     0.31637835975537 0.31192356721558 0.57440227642833 
C1    C     0.78496622151962 0.97774849895623 0.26532932429265 
C2    C     0.82009754621260 0.12521107763243 0.22318012248997 
C3    C     0.73531958809488 0.26225917983767 0.25225385088633 
C4    C     0.86680856638817 0.84918877593782 0.23349572714977 
C5    C     0.93928529169396 0.13343049517621 0.14152479366087 
C6    C     0.62786876591046 0.27652471926862 0.34199597891246 
C7    C     0.75546564654393 0.38882582391882 0.18736865695230 
C8    C     0.98970529654713 0.86137317203318 0.15830869753371 
C9    C     0.02426624046340 0.00145863280956 0.11285914105264 
C10   C     0.52399542218300 0.39539903117818 0.35074992213294 
C11   C     0.96616519636405 0.27155626064175 0.08605702711584 
C12   C     0.62307962527551 0.18586100099123 0.42500097886542 
C13   C     0.87350170165304 0.39168555377777 0.10569835954869 
C14   C     0.65728465825774 0.51352757250903 0.20281798638560 
C15   C     0.54158177607968 0.51251061732783 0.27909312798033 
C16   C     0.51426685351906 0.19990421117511 0.50722491048482 
C17   C     0.40961268887927 0.40164640399599 0.43337279738241 
C18   C     0.40282500407738 0.30337366972509 0.51008155760772 
