data_stdin
_audit_creation_method 'critic2'
_audit_creation_date 2023-8-11
_chemical_formula_sum 'C18 H12'
_cell_formula_units_Z 4
_cell_length_a         8.2507284678
_cell_length_b        21.7178912400
_cell_length_c         7.1013488402
_cell_angle_alpha        89.9983
_cell_angle_beta       106.4135
_cell_angle_gamma        90.0007
_cell_volume          1220.622923
_space_group_crystal_system monoclinic
_space_group_IT_number 14
_space_group_name_H-M_alt 'P2_1/c'
_space_group_name_Hall '-P 2ybc'
loop_
_symmetry_equiv_pos_site_id
_symmetry_equiv_pos_as_xyz
 1 'x,y,z'
 2 '-x,-y,-z'
 3 '-x,-1/2+y,-1/2-z'
 4 'x,-1/2-y,-1/2+z'
loop_
_atom_site_label
_atom_site_type_symbol
_atom_site_fract_x
_atom_site_fract_y
_atom_site_fract_z
H1    H     0.56219935015052 0.37572324005076 0.00974194056149 
H2    H     0.54569378019145 0.43113393022861 0.70658109032293 
H3    H     0.28404308014803 0.48797366004747 0.53133102996614 
H4    H     0.03441468040515 0.48500473007542 0.66367199962779 
H5    H     0.89133307044780 0.44337509016304 0.88956467944594 
H6    H     0.63972082012109 0.41562025012128 0.27299418982064 
H7    H     0.88957290058545 0.37116518991479 0.15900226030488 
H8    H     0.03140321978096 0.30050552992413 0.41221822986664 
H9    H     0.29252151015809 0.25516745987534 0.62887400033955 
H10   H     0.89354822008842 0.38211774016650 0.52436316979805 
H11   H     0.59855148939027 0.25447147984750 0.75240393959957 
H12   H     0.87844154966629 0.29813493989080 0.75801790045781 
C1    C     0.44956567927383 0.40247403993898 0.94268751940302 
C2    C     0.31248488045235 0.40159935990522 0.02641398960323 
C3    C     0.31635235002869 0.36961837990938 0.20692656043880 
C4    C     0.43950089044053 0.43301794983267 0.76894938948739 
C5    C     0.15772083054806 0.42983137989255 0.91563000038009 
C6    C     0.46961947970401 0.35132750022660 0.35378639013184 
C7    C     0.15964459019079 0.35483569981644 0.24187602998404 
C8    C     0.29088047025973 0.46436190996552 0.66863593964861 
C9    C     0.15239160968655 0.46249661017420 0.74140761055846 
C10   C     0.45955611019538 0.30808182020494 0.50285032966031 
C11   C     0.00731943014080 0.42095880002944 0.97361394930369 
C12   C     0.63007072004756 0.37786321994340 0.36935414056433 
C13   C     0.00677300951556 0.38184342008713 0.12402589984452 
C14   C     0.15429250935884 0.31293925012712 0.39503664966473 
C15   C     0.29846758059243 0.28809076020136 0.51565106048199 
C16   C     0.77333156986553 0.35953129015617 0.51295426005204 
C17   C     0.60920191054541 0.28818939019386 0.64315137017683 
C18   C     0.76452599986901 0.31274265995328 0.64726734936277 
