data_stdin
_audit_creation_method 'critic2'
_audit_creation_date 2023-8-11
_chemical_formula_sum 'C18 H12'
_cell_formula_units_Z 4
_cell_length_a         6.3521061439
_cell_length_b        11.4679981850
_cell_length_c        16.5173317691
_cell_angle_alpha        89.9986
_cell_angle_beta        93.2132
_cell_angle_gamma        90.0026
_cell_volume          1201.328951
_space_group_crystal_system monoclinic
_space_group_IT_number 14
_space_group_name_H-M_alt 'P2_1/c'
_space_group_name_Hall '-P 2ybc'
loop_
_symmetry_equiv_pos_site_id
_symmetry_equiv_pos_as_xyz
 1 'x,y,z'
 2 '-x,-y,-z'
 3 '-x,-1/2+y,-1/2-z'
 4 'x,-1/2-y,-1/2+z'
loop_
_atom_site_label
_atom_site_type_symbol
_atom_site_fract_x
_atom_site_fract_y
_atom_site_fract_z
H1    H     0.48482792414434 0.32239526484539 0.13424346891435 
H2    H     0.53414296475217 0.24561148943098 0.99845427564538 
H3    H     0.87621808521514 0.26703823739742 0.93499269726741 
H4    H     0.16612700275949 0.37935003611796 0.00689150189133 
H5    H     0.29286174288184 0.50279386034327 0.11697363970700 
H6    H     0.51915504677977 0.24243134146618 0.23572510645185 
H7    H     0.22753328331101 0.60973381074954 0.24319467285381 
H8    H     0.01490929468914 0.65789667793828 0.35111179452758 
H9    H     0.69313848595462 0.63298783673949 0.42686351590690 
H10   H     0.22606744709664 0.21045642268072 0.32115074955536 
H11   H     0.36684240240013 0.53099104735466 0.44809878459309 
H12   H     0.13299075666408 0.36047544694796 0.42396644617060 
C1    C     0.63867566520613 0.33049398667867 0.10946658260615 
C2    C     0.80305457308274 0.38981168095610 0.15443364020092 
C3    C     0.78086286821356 0.43912871661975 0.23456921188543 
C4    C     0.66507721546555 0.28779733572451 0.03229680604659 
C5    C     0.99389576623314 0.41058009166812 0.11379700473830 
C6    C     0.61259765561651 0.41057154307152 0.28729428307637 
C7    C     0.93053777150114 0.52448924769454 0.26206819677925 
C8    C     0.85867455686871 0.30061273037868 0.99585747598693 
C9    C     0.01953381833286 0.36219299200973 0.03606576703995 
C10   C     0.57555637191808 0.48664102441417 0.35411491850935 
C11   C     0.15022319385125 0.48722972788129 0.14895323062410 
C12   C     0.48531921834381 0.30893628127342 0.27986950723429 
C13   C     0.11449275113252 0.54589156498683 0.21864981058158 
C14   C     0.89806199810970 0.59216648413770 0.33280452544382 
C15   C     0.72120209882811 0.57793382777060 0.37489909859108 
C16   C     0.31911382611784 0.28974662149498 0.32899617998500 
C17   C     0.39866160546362 0.46813885739939 0.40091811842466 
C18   C     0.26954043184402 0.37238932587549 0.38790271408585 
