data_stdin
_audit_creation_method 'critic2'
_audit_creation_date 2023-8-11
_chemical_formula_sum 'C18 H12'
_cell_formula_units_Z 4
_cell_length_a        16.2904654200
_cell_length_b         9.8871049300
_cell_length_c         7.6593690403
_cell_angle_alpha        89.9998
_cell_angle_beta        90.0005
_cell_angle_gamma        90.0000
_cell_volume          1233.660418
_space_group_crystal_system orthorhombic
_space_group_IT_number 29
_space_group_name_H-M_alt 'Pca2_1'
_space_group_name_Hall 'P 2c -2ac'
loop_
_symmetry_equiv_pos_site_id
_symmetry_equiv_pos_as_xyz
 1 'x,y,z'
 2 '-x,-y,-1/2+z'
 3 '-1/2-x,y,-1/2+z'
 4 '-1/2+x,-y,z'
loop_
_atom_site_label
_atom_site_type_symbol
_atom_site_fract_x
_atom_site_fract_y
_atom_site_fract_z
H1    H     0.71889822002917 0.55561592049211 0.02313653039188 
H2    H     0.73034052999130 0.71678961999954 0.26138551010015 
H3    H     0.64664981975489 0.92764844975934 0.26510872995310 
H4    H     0.55858539027550 0.98115168012159 0.00698564971452 
H5    H     0.51305124007976 0.93463799030118 0.71891233034908 
H6    H     0.64463935016557 0.40733591994437 0.02535364017852 
H7    H     0.51329136025070 0.78732841013154 0.45448341997290 
H8    H     0.54627847977647 0.58441156033300 0.31020842023557 
H9    H     0.59615353983403 0.34776877040113 0.31129782982306 
H10   H     0.67870531976332 0.16808233951536 0.02388920985609 
H11   H     0.64254640979811 0.15295720013643 0.46797971023488 
H12   H     0.68095113983078 0.03699696007243 0.74459962946951 
C1    C     0.67904544987129 0.64360101018038 0.02218467992990 
C2    C     0.62411514989991 0.66497867025666 0.88083291038366 
C3    C     0.61148780985081 0.57046445014047 0.73791660061301 
C4    C     0.68724737014557 0.73660412998067 0.15622308059400 
C5    C     0.58392507029568 0.79407307044716 0.87445963961677 
C6    C     0.63131130020249 0.42732724979435 0.74443106024974 
C7    C     0.57569764030243 0.62128621039873 0.58175199013355 
C8    C     0.64094000006393 0.85669755966560 0.15692644037843 
C9    C     0.59114039004970 0.88524425997272 0.01590295999599 
C10   C     0.62671761993117 0.34868215033882 0.58686751992996 
C11   C     0.54152575996666 0.83493892959798 0.72056763040248 
C12   C     0.64857114026403 0.35569351966409 0.90080566968134 
C13   C     0.54158847988695 0.75428782961528 0.57605432040703 
C14   C     0.57168126000277 0.53979571044970 0.42829128034751 
C15   C     0.59903408978939 0.40944838950795 0.42893944014090 
C16   C     0.66616965010636 0.21884203964817 0.90069228974332 
C17   C     0.64582393022779 0.20905528982411 0.59026957946899 
C18   C     0.66673672013628 0.14461489009679 0.74380383983580 
