data_stdin
_audit_creation_method 'critic2'
_audit_creation_date 2023-8-11
_chemical_formula_sum 'C18 H12'
_cell_formula_units_Z 4
_cell_length_a         5.9512342346
_cell_length_b        12.5900208959
_cell_length_c        15.7515427287
_cell_angle_alpha        89.9993
_cell_angle_beta        98.8751
_cell_angle_gamma        89.9993
_cell_volume          1166.072239
_space_group_crystal_system monoclinic
_space_group_IT_number 14
_space_group_name_H-M_alt 'P2_1/c'
_space_group_name_Hall '-P 2ybc'
loop_
_symmetry_equiv_pos_site_id
_symmetry_equiv_pos_as_xyz
 1 'x,y,z'
 2 '-x,-y,-z'
 3 '-x,-1/2+y,-1/2-z'
 4 'x,-1/2-y,-1/2+z'
loop_
_atom_site_label
_atom_site_type_symbol
_atom_site_fract_x
_atom_site_fract_y
_atom_site_fract_z
H1    H     0.90489668963503 0.75965728988826 0.39947751976291 
H2    H     0.86646196973738 0.60982331965577 0.49349879971151 
H3    H     0.52464664064264 0.59056113008853 0.56550706009230 
H4    H     0.23014410948208 0.73378946005411 0.54652981006219 
H5    H     0.09972903017165 0.90456594984376 0.49396959000546 
H6    H     0.83867496975751 0.76140815024582 0.28243006007679 
H7    H     0.15217829084540 0.06780445975909 0.41085358020326 
H8    H     0.34407713052740 0.16753184025583 0.32070227018890 
H9    H     0.62705845048854 0.18690490964373 0.22141087019828 
H10   H     0.10945936967566 0.78490322999625 0.18376044003512 
H11   H     0.92172705092824 0.11381856020597 0.15209844021800 
H12   H     0.17053521002312 0.96428243978879 0.12191635021646 
C1    C     0.74838525974762 0.75167774976175 0.42601875008286 
C2    C     0.57722649978106 0.83065739977578 0.40829848028804 
C3    C     0.58640534097422 0.91940768018689 0.34975772030614 
C4    C     0.72899743005765 0.66745325992804 0.48084104019661 
C5    C     0.39265557013374 0.82447504978990 0.45717391970288 
C6    C     0.73729199931190 0.92683189974671 0.28559674987463 
C7    C     0.43731770957350 0.00613268980588 0.35651370015946 
C8    C     0.53719151035298 0.65724419982502 0.52243083995035 
C9    C     0.37408991960542 0.73610402026798 0.51139758990436 
C10   C     0.75509538045065 0.02598195974725 0.24187121982007 
C11   C     0.23617399985658 0.91034307020309 0.45547941023258 
C12   C     0.86400231057948 0.84072481027448 0.25909467975669 
C13   C     0.26420306042430 0.99965209982964 0.40948724973358 
C14   C     0.45628709935408 0.10217933018459 0.31034544972762 
C15   C     0.61297826049449 0.11310852008390 0.25631010969432 
C16   C     0.01535659033160 0.85350187006815 0.20146436021072 
C17   C     0.91163172014844 0.03711499031614 0.18326947010730 
C18   C     0.04601813975947 0.95344182030696 0.16507299981414 
