data_stdin
_audit_creation_method 'critic2'
_audit_creation_date 2023-8-11
_chemical_formula_sum 'C18 H12'
_cell_formula_units_Z 4
_cell_length_a        14.7480704907
_cell_length_b         3.8535935531
_cell_length_c        20.9184631246
_cell_angle_alpha        89.9960
_cell_angle_beta        74.6391
_cell_angle_gamma        89.9980
_cell_volume          1146.390342
_space_group_crystal_system monoclinic
_space_group_IT_number 14
_space_group_name_H-M_alt 'P2_1/c'
_space_group_name_Hall '-P 2ybc'
loop_
_symmetry_equiv_pos_site_id
_symmetry_equiv_pos_as_xyz
 1 'x,y,z'
 2 '-x,-y,-z'
 3 '-x,-1/2+y,-1/2-z'
 4 'x,-1/2-y,-1/2+z'
loop_
_atom_site_label
_atom_site_type_symbol
_atom_site_fract_x
_atom_site_fract_y
_atom_site_fract_z
H1    H     0.08289476996960 0.63649298004589 0.71352481021882 
H2    H     0.93935058001462 0.45298918082617 0.68593546993687 
H3    H     0.94512396016063 0.22403911974887 0.57372228998023 
H4    H     0.09702905969781 0.21746311902587 0.48722296014283 
H5    H     0.26205428996737 0.35938465078862 0.45007854011955 
H6    H     0.15650987997044 0.31093044994167 0.74988680983150 
H7    H     0.40435125989794 0.62152761076145 0.47206502993863 
H8    H     0.48702387978311 0.85271019879307 0.54611203977718 
H9    H     0.50135269008403 0.96879372113484 0.65932689008569 
H10   H     0.18273820008839 0.35381353981893 0.85955850015379 
H11   H     0.44203258987777 0.90094579965289 0.77775530998540 
H12   H     0.32377797020206 0.66587909946911 0.87608781023501 
C1    C     0.08850056990086 0.52480106872738 0.66504396981800 
C2    C     0.17771494967572 0.49952724889357 0.61844540008861 
C3    C     0.26591150967709 0.58755238038464 0.63282242006274 
C4    C     0.00678995971544 0.42809818988592 0.64919363018333 
C5    C     0.17849104974776 0.40229845963156 0.55209035021195 
C6    C     0.27950281019296 0.60506215966804 0.69889532997147 
C7    C     0.34484858000579 0.65419101057884 0.57837763976248 
C8    C     0.00961548990339 0.30240550035353 0.58563120988989 
C9    C     0.09430529020750 0.29571149885972 0.53771655983003 
C10   C     0.36471681005106 0.75176855986318 0.70788505006064 
C11   C     0.26289481992706 0.43461179051074 0.50012013982152 
C12   C     0.21640054007113 0.45834028074501 0.75566994017716 
C13   C     0.34144216980120 0.57605916904474 0.51237192023785 
C14   C     0.42911322005825 0.79368682968032 0.58918707999562 
C15   C     0.43758322012655 0.85464628018250 0.65159141009995 
C16   C     0.23215269030897 0.47826617048988 0.81783039005923 
C17   C     0.37801684031500 0.77768807106153 0.77227665977576 
C18   C     0.31246189990133 0.64710243051932 0.82682116982132 
