data_stdin
_audit_creation_method 'critic2'
_audit_creation_date 2023-8-11
_chemical_formula_sum 'C18 H12'
_cell_formula_units_Z 8
_cell_length_a        20.4925429602
_cell_length_b        14.7883014900
_cell_length_c         7.7862479401
_cell_angle_alpha        90.0003
_cell_angle_beta        89.9998
_cell_angle_gamma        90.0003
_cell_volume          2359.621688
_space_group_crystal_system orthorhombic
_space_group_IT_number 61
_space_group_name_H-M_alt 'Pbca'
_space_group_name_Hall '-P 2ac 2ab'
loop_
_symmetry_equiv_pos_site_id
_symmetry_equiv_pos_as_xyz
 1 'x,y,z'
 2 '-x,-y,-z'
 3 '-x,-1/2+y,-1/2-z'
 4 'x,-1/2-y,-1/2+z'
 5 '-1/2-x,-y,-1/2+z'
 6 '-1/2+x,y,-1/2-z'
 7 '-1/2+x,-1/2-y,-z'
 8 '-1/2-x,-1/2+y,z'
loop_
_atom_site_label
_atom_site_type_symbol
_atom_site_fract_x
_atom_site_fract_y
_atom_site_fract_z
H1    H     0.57936661316683 0.30118737830816 0.60842669163623 
H2    H     0.65101978155583 0.41508171307224 0.48184725293318 
H3    H     0.74903000919551 0.36912427265529 0.31384374587814 
H4    H     0.77898651601581 0.20621985907380 0.29734120701968 
H5    H     0.76098275676391 0.05022076641353 0.37888369165560 
H6    H     0.50361245053090 0.25005930772909 0.48295880796853 
H7    H     0.69677497998546 0.93602991347203 0.53983171084773 
H8    H     0.60493049033968 0.89310758194499 0.70741149522256 
H9    H     0.49919834837955 0.92733576494457 0.84614731570013 
H10   H     0.39357173099802 0.27250460586791 0.59043595246115 
H11   H     0.40652478320746 0.02636826831000 0.88233907168269 
H12   H     0.34500932220661 0.16483219527394 0.80455677924044 
C1    C     0.62055774002495 0.27917727722770 0.53156715109775 
C2    C     0.63302241195030 0.18536318801624 0.51246229867991 
C3    C     0.59090241176409 0.11536597683101 0.58087919779472 
C4    C     0.66196683891406 0.34368587668967 0.46389514561217 
C5    C     0.69390949481926 0.16019900669493 0.43485763767326 
C6    C     0.52398983544549 0.12980630620361 0.63445793729111 
C7    C     0.61746182839125 0.02729441894692 0.60049892862781 
C8    C     0.71829821762208 0.31792181772593 0.37306698966288 
C9    C     0.73442436736091 0.22751180776632 0.36220018484367 
C10   C     0.49254387971060 0.06242346975678 0.73823481961406 
C11   C     0.71489575468531 0.06830253954396 0.43996002408702 
C12   C     0.48514329644853 0.20391137565387 0.57994310284533 
C13   C     0.67927230257680 0.00525572971296 0.52725045261893 
C14   C     0.58303208669835 0.95987733184876 0.69498375935458 
C15   C     0.52415867421711 0.97816102875088 0.76913987064119 
C16   C     0.42204657377139 0.21588923193068 0.63898655461973 
C17   C     0.42866770761960 0.07773566075660 0.80085175797498 
C18   C     0.39418140868670 0.15422676358638 0.75560149463935 
