data_stdin
_audit_creation_method 'critic2'
_audit_creation_date 2023-8-11
_chemical_formula_sum 'C18 H12'
_cell_formula_units_Z 4
_cell_length_a        14.6127626100
_cell_length_b         7.9249884400
_cell_length_c        10.5594360000
_cell_angle_alpha        90.0000
_cell_angle_beta        90.0000
_cell_angle_gamma        90.0000
_cell_volume          1222.845779
_space_group_crystal_system orthorhombic
_space_group_IT_number 19
_space_group_name_H-M_alt 'P2_12_12_1'
_space_group_name_Hall 'P 2ac 2ab'
loop_
_symmetry_equiv_pos_site_id
_symmetry_equiv_pos_as_xyz
 1 'x,y,z'
 2 '-1/2+x,-1/2-y,-z'
 3 '-x,-1/2+y,-1/2-z'
 4 '-1/2-x,-y,-1/2+z'
loop_
_atom_site_label
_atom_site_type_symbol
_atom_site_fract_x
_atom_site_fract_y
_atom_site_fract_z
H1    H     0.99620077978334 0.13481912952448 0.49290423979246 
H2    H     0.09717747983182 0.16950103033238 0.31245796012188 
H3    H     0.16224224023543 0.91823281939272 0.20080362974927 
H4    H     0.12479808006915 0.63097624007593 0.27944278992898 
H5    H     0.05138636002714 0.44688156016017 0.42667558046840 
H6    H     0.86814478980695 0.14056665963657 0.49580961026081 
H7    H     0.96694415998344 0.40613308967855 0.62850618959950 
H8    H     0.88980691995328 0.51292406017921 0.80701050019921 
H9    H     0.81480566021682 0.74612211032460 0.92464349975173 
H10   H     0.77977373983438 0.35491541009186 0.60735214020693 
H11   H     0.75937438976764 0.03165523053250 0.93273550955338 
H12   H     0.72892246009926 0.30716467994248 0.83120311989913 
C1    C     0.01870199033196 0.02277036053304 0.44311289967449 
C2    C     0.99120381977456 0.86094953980904 0.48642022021572 
C3    C     0.93016994013405 0.83300982988887 0.59318439977511 
C4    C     0.07832471981465 0.04284321021204 0.34252764954838 
C5    C     0.03359754978308 0.71830137970670 0.42619493000005 
C6    C     0.87284530023056 0.96133542948552 0.65147689018287 
C7    C     0.92866309008252 0.66860678027247 0.64726050958019 
C8    C     0.11532702972363 0.90174549944764 0.27992778981161 
C9    C     0.09396837028208 0.74207432978187 0.32286083047090 
C10   C     0.83375578993429 0.92889867970751 0.77384219041224 
C11   C     0.01933405974926 0.55296695041773 0.47505049963761 
C12   C     0.84854696982396 0.11665772983233 0.59325927971998 
C13   C     0.97202990004380 0.53030599964324 0.58501093975679 
C14   C     0.88555573012974 0.63909114058687 0.76652995997809 
C15   C     0.84341980018654 0.76680112947673 0.83063174968535 
C16   C     0.79687402007036 0.23745338976961 0.65546694990035 
C17   C     0.78418172982486 0.05682390062470 0.83739757955271 
C18   C     0.76688717033930 0.21016687037201 0.78050667974536 
