data_stdin
_audit_creation_method 'critic2'
_audit_creation_date 2023-8-11
_chemical_formula_sum 'C18 H12'
_cell_formula_units_Z 4
_cell_length_a         5.2514331328
_cell_length_b         9.4115839681
_cell_length_c        23.8192291435
_cell_angle_alpha        90.0023
_cell_angle_beta        93.0076
_cell_angle_gamma        90.0000
_cell_volume          1175.627288
_space_group_crystal_system monoclinic
_space_group_IT_number 14
_space_group_name_H-M_alt 'P2_1/c'
_space_group_name_Hall '-P 2ybc'
loop_
_symmetry_equiv_pos_site_id
_symmetry_equiv_pos_as_xyz
 1 'x,y,z'
 2 '-x,-y,-z'
 3 '-x,-1/2+y,-1/2-z'
 4 'x,-1/2-y,-1/2+z'
loop_
_atom_site_label
_atom_site_type_symbol
_atom_site_fract_x
_atom_site_fract_y
_atom_site_fract_z
H1    H     0.27166271933533 0.47406141049517 0.90241198996901 
H2    H     0.51845826960509 0.26229436981779 0.88169994980329 
H3    H     0.90146350938861 0.28054611978049 0.82386859002629 
H4    H     0.01023371931228 0.51271582035702 0.78213704985733 
H5    H     0.91309507923825 0.75908720012941 0.76275782001750 
H6    H     0.34426913941393 0.59300832951977 0.96916549001121 
H7    H     0.62596808028982 0.96662208967279 0.77141407005670 
H8    H     0.28832094009382 0.08550650001168 0.81388794996202 
H9    H     0.93754313063609 0.09117430046807 0.88042992006731 
H10   H     0.02843312021873 0.61576227017931 0.03967120988664 
H11   H     0.71152540045555 0.98388037038365 0.95498092006811 
H12   H     0.68824135024945 0.80316496044969 0.03032587994187 
C1    C     0.44110096072223 0.48574260968557 0.87873643991978 
C2    C     0.50730165040171 0.62210483950347 0.85859536014845 
C3    C     0.37145410021962 0.75155199950149 0.87105001990500 
C4    C     0.57824298037459 0.36530403958201 0.86620566005436 
C5    C     0.70958120966917 0.62794156947492 0.82039460994065 
C6    C     0.19915745080783 0.76589612980407 0.91635284007806 
C7    C     0.40833164925424 0.87193352974362 0.83638911006689 
C8    C     0.79101911073747 0.37495246982522 0.83286918012161 
C9    C     0.85279938984159 0.50425413985655 0.80992020009595 
C10   C     0.03052983083537 0.88568835981941 0.91657481013752 
C11   C     0.75577282084318 0.75600239952047 0.79074664008948 
C12   C     0.19721563929314 0.67347626042356 0.96332738014501 
C13   C     0.60147387967126 0.87121466030737 0.79646050003039 
C14   C     0.25420716065406 0.99583921027257 0.84146414981898 
C15   C     0.06306118988001 0.99948521990267 0.87816002991239 
C16   C     0.01932591932099 0.68768550041279 0.00385189014783 
C17   C     0.84312747025603 0.89429291953937 0.95695402008384 
C18   C     0.83258782073974 0.79481992982380 0.99934944010716 
