data_stdin
_audit_creation_method 'critic2'
_audit_creation_date 2023-8-11
_chemical_formula_sum 'C18 H12'
_cell_formula_units_Z 4
_cell_length_a        10.1981943039
_cell_length_b         3.8709896797
_cell_length_c        31.7471004505
_cell_angle_alpha        90.0161
_cell_angle_beta        68.8803
_cell_angle_gamma        90.0070
_cell_volume          1169.099766
_space_group_crystal_system triclinic
_space_group_IT_number 2
_space_group_name_H-M_alt 'P-1'
_space_group_name_Hall '-P 1'
loop_
_symmetry_equiv_pos_site_id
_symmetry_equiv_pos_as_xyz
 1 'x,y,z'
 2 '-x,-y,-z'
loop_
_atom_site_label
_atom_site_type_symbol
_atom_site_fract_x
_atom_site_fract_y
_atom_site_fract_z
H1    H     0.99061844048560 0.32072093027909 0.20685601996897 
H2    H     0.00942230999670 0.82073747111708 0.29315122014660 
H3    H     0.77897199049320 0.14556806918113 0.26932074999643 
H4    H     0.22108336995155 0.64565796094567 0.23067957986981 
H5    H     0.58022535992002 0.86004117097229 0.25438413993563 
H6    H     0.41979689970822 0.36011694045065 0.24560434983581 
H7    H     0.59369923954509 0.78567351054449 0.17539122001995 
H8    H     0.40627790963765 0.28569063043552 0.32459545990282 
H9    H     0.71204077023966 0.88168822089473 0.09500069010474 
H10   H     0.28790461022598 0.38164292871540 0.40499265990237 
H11   H     0.14996668043814 0.99743255937335 0.18117932003722 
H12   H     0.85003916982092 0.49742960020157 0.31879846997564 
H13   H     0.91007306984445 0.13182343124290 0.03208094994917 
H14   H     0.08985299007871 0.63168135033116 0.46792683014275 
H15   H     0.13367389981396 0.41642563876878 0.00338868014897 
H16   H     0.86626793946589 0.91627387112168 0.49663198010417 
H17   H     0.35222495028548 0.62198612029147 0.01243859011761 
H18   H     0.64776994022996 0.12198008056460 0.48758171988386 
H19   H     0.38390802946777 0.09556786057005 0.18298530011696 
H20   H     0.61612040980532 0.59564903914623 0.31698590989589 
H21   H     0.50840090940191 0.61244688882141 0.05462547016248 
H22   H     0.49163706019744 0.11262066965298 0.44537632005453 
H23   H     0.56521290030345 0.41441103957488 0.12060518011061 
H24   H     0.43483989971403 0.91460711893452 0.37937647987966 
C1    C     0.90851390999938 0.18484942999805 0.19934290011687 
C2    C     0.09151134020194 0.68486073913971 0.30065783014210 
C3    C     0.92385095030754 0.12453261906814 0.15372895013553 
C4    C     0.07614885974468 0.62451419063049 0.34626891990643 
C5    C     0.04918159044939 0.21127468116904 0.11551137998898 
C6    C     0.95081032062548 0.71123642908431 0.38448883985539 
C7    C     0.78742513983844 0.09369938949425 0.23473752985958 
C8    C     0.21260991962796 0.59375532125384 0.26526001995070 
C9    C     0.80337105986857 0.99377522894271 0.14564800993888 
C10   C     0.19661267971228 0.49376383077281 0.35434605991364 
C11   C     0.18654039019000 0.26689686052256 0.11814793014493 
C12   C     0.81346665968180 0.76690921929634 0.38184818003856 
C13   C     0.03731047047892 0.23897796088194 0.07247205000332 
C14   C     0.96265574052540 0.73889010077434 0.42753433990539 
C15   C     0.67446728045307 0.93749065090628 0.22645275991437 
C16   C     0.32554944998667 0.43754383937912 0.27353868997674 
C17   C     0.68222068023423 0.89383183057917 0.18247591989375 
C18   C     0.31777193029981 0.39385690009729 0.31751419998553 
C19   C     0.29532280965563 0.42184425037529 0.08059519990851 
C20   C     0.70468979016122 0.92189598009557 0.41940725992348 
C21   C     0.80372306938277 0.98389207922018 0.10071520016170 
C22   C     0.19623509961467 0.48384104968243 0.39928091998207 
C23   C     0.22457213013557 0.14856531902824 0.15442481003811 
C24   C     0.77544125025921 0.64859114100125 0.34555978008076 
C25   C     0.91370560019556 0.11975790095150 0.06592028013715 
C26   C     0.08624126027516 0.61965370013127 0.43408380986008 
C27   C     0.14889571052393 0.38574216933953 0.03543437985048 
C28   C     0.85106793032673 0.88564761922895 0.46457964995897 
C29   C     0.27048846967964 0.49301983078653 0.04005772006882 
C30   C     0.72950356036610 0.99300807967839 0.45995546006667 
C31   C     0.35798216980321 0.19914579936987 0.15508739990710 
C32   C     0.64204447992849 0.69922100978714 0.34489312987601 
C33   C     0.42936684014264 0.48244961913506 0.08290542010730 
C34   C     0.57066523971991 0.98258206889162 0.41709167008018 
C35   C     0.46071169996787 0.37489851072374 0.11963470015874 
C36   C     0.53932804008845 0.87504102995499 0.38035161016382 
