data_stdin
_audit_creation_method 'critic2'
_audit_creation_date 2023-8-11
_chemical_formula_sum 'C18 H12'
_cell_formula_units_Z 8
_cell_length_a         9.3556895200
_cell_length_b        18.1779738200
_cell_length_c        13.9947191300
_cell_angle_alpha        90.0000
_cell_angle_beta        90.0000
_cell_angle_gamma        90.0000
_cell_volume          2380.046604
_space_group_crystal_system orthorhombic
_space_group_IT_number 61
_space_group_name_H-M_alt 'Pbca'
_space_group_name_Hall '-P 2ac 2ab'
loop_
_symmetry_equiv_pos_site_id
_symmetry_equiv_pos_as_xyz
 1 'x,y,z'
 2 '-x,-y,-z'
 3 '-1/2-x,-y,-1/2+z'
 4 '-1/2+x,y,-1/2-z'
 5 '-1/2+x,-1/2-y,-z'
 6 '-1/2-x,-1/2+y,z'
 7 '-x,-1/2+y,-1/2-z'
 8 'x,-1/2-y,-1/2+z'
loop_
_atom_site_label
_atom_site_type_symbol
_atom_site_fract_x
_atom_site_fract_y
_atom_site_fract_z
H1    H     0.12147810965788 0.51944475023745 0.76855556013778 
H2    H     0.05239505049856 0.64668705003388 0.74618840010261 
H3    H     0.83507217024391 0.69792806027240 0.82690462992844 
H4    H     0.68232165029215 0.61432522008584 0.92391133016244 
H5    H     0.61770465002754 0.49353864016847 0.97495195970399 
H6    H     0.24972803989284 0.48458808985078 0.86152331964479 
H7    H     0.66542841998963 0.35920438989509 0.98047274006272 
H8    H     0.81281047950725 0.25645174972917 0.95284170984504 
H9    H     0.04099790013653 0.20010194973447 0.90005996999433 
H10   H     0.47973601997838 0.42637635995490 0.83234798009586 
H11   H     0.28749762043665 0.21262883995553 0.85531251987308 
H12   H     0.50162627986403 0.29028389014139 0.82417775995567 
C1    C     0.02924818963187 0.53967313981394 0.80751376999796 
C2    C     0.94929013024401 0.49139585991594 0.86678733029027 
C3    C     0.98691394038854 0.41510175983325 0.88486176016384 
C4    C     0.98858769997512 0.61202332021342 0.79312095005404 
C5    C     0.81708553947891 0.51946873984395 0.90386062977767 
C6    C     0.12707122028457 0.38332143997726 0.86794542028441 
C7    C     0.87843427977538 0.36803422973377 0.92113260018724 
C8    C     0.86562162959038 0.64071977982510 0.83755501030788 
C9    C     0.78078971990166 0.59443767026790 0.89123803003176 
C10   C     0.14362094044737 0.30476569992684 0.87131094033481 
C11   C     0.71783849969605 0.47090958999243 0.94827437988493 
C12   C     0.25353459051684 0.42521941998105 0.85514227014633 
C13   C     0.74500499022030 0.39727292983803 0.95245820009411 
C14   C     0.89998830950146 0.29048518025748 0.92634289003291 
C15   C     0.02608910953750 0.25955535995650 0.89854080010223 
C16   C     0.38498605044184 0.39230186012242 0.84051306020120 
C17   C     0.27860024010947 0.27240201012019 0.85321925029833 
C18   C     0.39785687964093 0.31531069025666 0.83715891028672 
