data_stdin
_audit_creation_method 'critic2'
_audit_creation_date 2023-8-11
_chemical_formula_sum 'C18 H12'
_cell_formula_units_Z 8
_cell_length_a        42.2728098163
_cell_length_b         3.7883704489
_cell_length_c        15.3640949997
_cell_angle_alpha        90.0154
_cell_angle_beta        70.1216
_cell_angle_gamma        90.0240
_cell_volume          2313.879491
_space_group_crystal_system triclinic
_space_group_IT_number 2
_space_group_name_H-M_alt 'P-1'
_space_group_name_Hall '-P 1'
loop_
_symmetry_equiv_pos_site_id
_symmetry_equiv_pos_as_xyz
 1 'x,y,z'
 2 '-x,-y,-z'
 3 '-1/2+x,-1/2+y,z'
 4 '-1/2-x,-1/2-y,-z'
loop_
_atom_site_label
_atom_site_type_symbol
_atom_site_fract_x
_atom_site_fract_y
_atom_site_fract_z
H1    H     0.35543271703873 0.89103371163499 0.61343098583801 
H2    H     0.64458499962682 0.89098503231241 0.88658104045098 
H3    H     0.30108350132240 0.81257027862555 0.73494969246137 
H4    H     0.69892946766613 0.81257133682386 0.76506232250440 
H5    H     0.25177680954656 0.58109052543828 0.69715949315105 
H6    H     0.74821908785697 0.58109881727678 0.80284738017973 
H7    H     0.25752369909196 0.47937328542029 0.53304034397321 
H8    H     0.74245994648597 0.47925236860269 0.96696384172122 
H9    H     0.28984726610481 0.52663188858484 0.36918245867177 
H10   H     0.71013398088103 0.52634786608350 0.13082127690617 
H11   H     0.38847836586229 0.49117469291778 0.57351899558610 
H12   H     0.61150755462681 0.49113290533514 0.92645917979501 
H13   H     0.34179765202336 0.71454143339245 0.24475801601828 
H14   H     0.65819434122500 0.71415787610591 0.25525435303429 
H15   H     0.39853985496121 0.94702605464088 0.19495303875232 
H16   H     0.60147090137230 0.94674379989335 0.30506469640437 
H17   H     0.45156375597186 0.06336258878012 0.22410455240265 
H18   H     0.54846204007404 0.06326320855916 0.27590321253490 
H19   H     0.44376227200640 0.50517176012889 0.59057119017445 
H20   H     0.55622789180056 0.50526963872357 0.90938929498637 
H21   H     0.48580598044436 0.98583552017806 0.32210575772211 
H22   H     0.51421881969799 0.98595028548839 0.17787570734717 
H23   H     0.49309543567830 0.76663045783389 0.46587824947558 
H24   H     0.50691619215468 0.76682917723899 0.03408147203188 
C1    C     0.33470747974262 0.78271205354094 0.59534460890647 
C2    C     0.66530118579610 0.78263849495317 0.90466303402590 
C3    C     0.33949942300407 0.70650641142782 0.50142152986870 
C4    C     0.66050138756835 0.70637813545414 0.99858243290049 
C5    C     0.37137731682284 0.74826658287472 0.42725012376725 
C6    C     0.62862534170996 0.74812534408042 0.07275193671851 
C7    C     0.30376530192384 0.74223963769578 0.66408374385769 
C8    C     0.69624164786471 0.74220821024785 0.83592544947452 
C9    C     0.31025796414113 0.61339270916884 0.47929084461370 
C10   C     0.68973445286525 0.61323567374285 0.02071323147621 
C11   C     0.40372449352238 0.75363064765398 0.44025667784527 
C12   C     0.59628035317925 0.75357326130682 0.05973530074301 
C13   C     0.37084950968974 0.78401268924714 0.33585738060456 
C14   C     0.62915263738172 0.78378685504569 0.16415078107020 
C15   C     0.27595203066652 0.61755673344846 0.64257245495047 
C16   C     0.72404526835347 0.61752177383662 0.85743414781444 
C17   C     0.27924168030663 0.55805122165121 0.55131465079742 
C18   C     0.72074870006309 0.55794905167604 0.94868983688972 
C19   C     0.43268071239637 0.87347080307027 0.36603796794778 
C20   C     0.56733303451761 0.87344219449553 0.13395533423681 
C21   C     0.31223416381818 0.60077375034603 0.38486499240410 
C22   C     0.68775384966057 0.60052559749064 0.11513991880252 
C23   C     0.40914062165737 0.61741618263479 0.52005910579362 
C24   C     0.59085546770482 0.61740716213940 0.97992092392657 
C25   C     0.34097680637168 0.70302210450522 0.31634932383582 
C26   C     0.65901699943240 0.70272128751341 0.18366022875636 
C27   C     0.40020815958457 0.90015885796457 0.26325906951608 
C28   C     0.59980189398871 0.89993736297350 0.23675173248585 
C29   C     0.42964254482244 0.96113016405919 0.27896527589044 
C30   C     0.57037512782197 0.96101246432662 0.22103996802501 
C31   C     0.44058672023610 0.62038688562717 0.52910110080649 
C32   C     0.55941127627076 0.62045747840022 0.97086882602084 
C33   C     0.46433185483769 0.88433619456433 0.37833542168367 
C34   C     0.53568500358477 0.88440740485408 0.12164649581480 
C35   C     0.46839432418628 0.76225574977213 0.45846656533782 
C36   C     0.53161525195631 0.76238042073313 0.04150298980464 
