data_stdin
_audit_creation_method 'critic2'
_audit_creation_date 2023-8-11
_chemical_formula_sum 'C18 H12'
_cell_formula_units_Z 6
_cell_length_a         8.0877719888
_cell_length_b         8.0868441524
_cell_length_c        32.3160997918
_cell_angle_alpha        90.0315
_cell_angle_beta        89.9744
_cell_angle_gamma       120.0096
_cell_volume          1830.270998
_space_group_crystal_system monoclinic
_space_group_IT_number 5
_space_group_name_H-M_alt 'C2'
_space_group_name_Hall 'C 2y'
loop_
_symmetry_equiv_pos_site_id
_symmetry_equiv_pos_as_xyz
 1 'x,y,z'
 2 'y,x,-z'
 3 'x,y,-1/2+z'
 4 'y,x,-1/2-z'
loop_
_atom_site_label
_atom_site_type_symbol
_atom_site_fract_x
_atom_site_fract_y
_atom_site_fract_z
H1    H     0.48107397370456 0.13184699187876 0.09657859121234 
H2    H     0.86806952025890 0.34924636422161 0.42986712828798 
H3    H     0.65086724687071 0.51896182241759 0.76322621320911 
H4    H     0.49094826951555 0.41097669300015 0.06482743223000 
H5    H     0.58889342403766 0.07983310656012 0.39811714134337 
H6    H     0.92019000700239 0.50900855879968 0.73148753666334 
H7    H     0.75360116723641 0.61821374315874 0.01603265944838 
H8    H     0.38162561916214 0.13511766106718 0.34935092624833 
H9    H     0.86482132836168 0.24617200988098 0.68272543807370 
H10   H     0.01594096857312 0.55040598766559 0.00334141748281 
H11   H     0.44951116167391 0.46527934922066 0.33666554358121 
H12   H     0.53465627137987 0.98384504964883 0.67003137681818 
H13   H     0.17337871968260 0.37126052696698 0.01703152572829 
H14   H     0.62878238078527 0.80199984690625 0.35034574153218 
H15   H     0.19799323777265 0.82648532094270 0.68369477226432 
H16   H     0.19500014069306 0.12245713205540 0.05781238551556 
H17   H     0.87764071933497 0.07261304185555 0.39112833361134 
H18   H     0.92745083946090 0.80490787248362 0.72447656683757 
C1    C     0.59218981663578 0.21438653091022 0.07411705154429 
C2    C     0.78552396042827 0.37775454904355 0.40741354364419 
C3    C     0.62231855999318 0.40778954974732 0.74077237046510 
C4    C     0.73394179485172 0.16430355312156 0.06560086961024 
C5    C     0.83562774398067 0.56959904722428 0.39890719980848 
C6    C     0.43047355143615 0.26601006728276 0.73226166343118 
C7    C     0.73461078275122 0.99986993297412 0.08334187333258 
C8    C     0.26533116367141 0.26536055309592 0.75000380110717 
C9    C     0.59873671321680 0.37373568690084 0.05655233060572 
C10   C     0.62614699408732 0.22486535288419 0.38985105279519 
C11   C     0.77516081343200 0.40119493647455 0.72321626782126 
C12   C     0.89283958605275 0.29469180662437 0.04053594490184 
C13   C     0.70525872296543 0.59804213869151 0.37384890068451 
C14   C     0.40198166876723 0.10705836690952 0.70720293339485 
C15   C     0.91032275219950 0.99990551073530 0.08333866881204 
C16   C     0.08960296793966 0.08963031941281 0.75000281655106 
C17   C     0.74814376350599 0.49238810286768 0.02954018218568 
C18   C     0.50748567027552 0.25554669658961 0.36285282118003 
C19   C     0.74443293848970 0.25169925628578 0.69622030349906 
C20   C     0.89381755138344 0.45414784706077 0.02223821879936 
C21   C     0.54576507132769 0.43947191844103 0.35555536528683 
C22   C     0.56050479659137 0.10602210885563 0.68891748439961 
C23   C     0.05528459104268 0.27106592660760 0.03643125708929 
C24   C     0.72894583805750 0.78414610103643 0.36974551104521 
C25   C     0.21587592031081 0.94460307310547 0.70309584069748 
C26   C     0.06669667494077 0.13414549342944 0.05879802599572 
C27   C     0.86589975459212 0.93258460228358 0.39211276496819 
C28   C     0.06748012254462 0.93321844718103 0.72546170716576 
