data_stdin
_audit_creation_method 'critic2'
_audit_creation_date 2023-8-11
_chemical_formula_sum 'C18 H12'
_cell_formula_units_Z 4
_cell_length_a         7.7492930063
_cell_length_b         6.3753154703
_cell_length_c        24.5586236374
_cell_angle_alpha        90.0005
_cell_angle_beta        87.6039
_cell_angle_gamma        90.0004
_cell_volume          1212.238024
_space_group_crystal_system monoclinic
_space_group_IT_number 14
_space_group_name_H-M_alt 'P2_1/c'
_space_group_name_Hall '-P 2ybc'
loop_
_symmetry_equiv_pos_site_id
_symmetry_equiv_pos_as_xyz
 1 'x,y,z'
 2 '-x,-y,-z'
 3 '-x,-1/2+y,-1/2-z'
 4 'x,-1/2-y,-1/2+z'
loop_
_atom_site_label
_atom_site_type_symbol
_atom_site_fract_x
_atom_site_fract_y
_atom_site_fract_z
H1    H     0.06399663986730 0.06819368973147 0.63423245017358 
H2    H     0.91548787013973 0.75946841030747 0.60118436981765 
H3    H     0.08053391027586 0.47661760993731 0.55034989989506 
H4    H     0.39163553955975 0.53094805936846 0.52719220015784 
H5    H     0.64656927987132 0.75018177066306 0.52430485998082 
H6    H     0.16172954960408 0.06927142037662 0.70711987997071 
H7    H     0.79362962053305 0.07790940021659 0.54916936007835 
H8    H     0.80332485937625 0.39895461999109 0.59830317987720 
H9    H     0.67126711949536 0.66060681973358 0.66271965012569 
H10   H     0.05908330029486 0.30724445977606 0.77865212982999 
H11   H     0.44778293022406 0.75814812013357 0.72847203992870 
H12   H     0.19442504972640 0.66371143946689 0.78835242001829 
C1    C     0.13952713973580 0.94635281956307 0.61354503005728 
C2    C     0.32062534970003 0.97311604013707 0.60509403017982 
C3    C     0.41736639962873 0.14638899949169 0.62694741989042 
C4    C     0.05462331948220 0.77255783001569 0.59408057984304 
C5    C     0.40856185043448 0.82450074959242 0.57000583990390 
C6    C     0.35517993029385 0.27977327928306 0.67139049015166 
C7    C     0.58499821944187 0.18700887043481 0.60361678012806 
C8    C     0.14630672004562 0.61629734056911 0.56445401981031 
C9    C     0.31971405030948 0.64563681997382 0.55182049006298 
C10   C     0.44464004989758 0.47178637004568 0.68170851004137 
C11   C     0.58264395060858 0.86254208029475 0.55176224019111 
C12   C     0.21828805940611 0.22466137076008 0.70882231004641 
C13   C     0.66460452935956 0.04248053926985 0.56598851006440 
C14   C     0.67616333042289 0.37244455013920 0.61770598995917 
C15   C     0.60485980960035 0.51531928068905 0.65340584999272 
C16   C     0.16219497053053 0.35882950941251 0.75020767019037 
C17   C     0.38038788063130 0.61047798062888 0.72272716003005 
C18   C     0.23974677955148 0.55683778041295 0.75627478009452 
