data_stdin
_audit_creation_method 'critic2'
_audit_creation_date 2023-8-11
_chemical_formula_sum 'C18 H12'
_cell_formula_units_Z 4
_cell_length_a        16.9565708907
_cell_length_b         4.4867614317
_cell_length_c        15.5463400211
_cell_angle_alpha        89.9986
_cell_angle_beta        90.0011
_cell_angle_gamma        90.0013
_cell_volume          1182.766920
_space_group_crystal_system orthorhombic
_space_group_IT_number 19
_space_group_name_H-M_alt 'P2_12_12_1'
_space_group_name_Hall 'P 2ac 2ab'
loop_
_symmetry_equiv_pos_site_id
_symmetry_equiv_pos_as_xyz
 1 'x,y,z'
 2 '-1/2+x,-1/2-y,-z'
 3 '-x,-1/2+y,-1/2-z'
 4 '-1/2-x,-y,-1/2+z'
loop_
_atom_site_label
_atom_site_type_symbol
_atom_site_fract_x
_atom_site_fract_y
_atom_site_fract_z
H1    H     0.53879392020191 0.92329821949170 0.42254941992303 
H2    H     0.64195169022005 0.59537584971486 0.47977216011575 
H3    H     0.62287819995333 0.33060785955174 0.61858592986794 
H4    H     0.50088661008150 0.42477288088718 0.70400446003303 
H5    H     0.37808679024142 0.68231851002254 0.72534753986501 
H6    H     0.46012692982585 0.77345948907534 0.34554098998313 
H7    H     0.28018956027846 0.05669558903053 0.67744608026750 
H8    H     0.22912253003477 0.38984816046643 0.57283741014040 
H9    H     0.22391847983576 0.58741193929265 0.42396127013623 
H10   H     0.44137712022878 0.92413354893693 0.19741783014814 
H11   H     0.26408265998557 0.55484879034397 0.27612083009613 
H12   H     0.34485459008726 0.32755243033490 0.16005083968588 
C1    C     0.52752692015158 0.80042185098528 0.48136899001460 
C2    C     0.45463158010337 0.84015313962168 0.52463707000962 
C3    C     0.38951648982341 0.01501412017019 0.49112424974940 
C4    C     0.58663167012658 0.62163997905330 0.51462088986021 
C5    C     0.44814061999080 0.71205802008088 0.60888058000163 
C6    C     0.37958117977258 0.09590951097655 0.40137340019248 
C7    C     0.33032493024865 0.10715344936736 0.55002532972472 
C8    C     0.57661587990540 0.47567752904896 0.59400793030324 
C9    C     0.50874938010530 0.52562732944010 0.64082811983333 
C10   C     0.31945183022044 0.30669972989613 0.37827100016564 
C11   C     0.38248088019233 0.78504065898925 0.66201780025975 
C12   C     0.42111871999755 0.95932883996430 0.33267409010762 
C13   C     0.32818760985618 0.98921176960810 0.63516684004253 
C14   C     0.27110777971700 0.31489042034139 0.52443992029931 
C15   C     0.26771813003548 0.42165879939648 0.44239057985006 
C16   C     0.40909243980062 0.04059889995039 0.24783040002629 
C17   C     0.30908519012059 0.38951709082885 0.29124014029928 
C18   C     0.35387809985286 0.26265044045021 0.22677159019624 
