data_stdin
_audit_creation_method 'critic2'
_audit_creation_date 2023-8-11
_chemical_formula_sum 'C18 H12'
_cell_formula_units_Z 16
_cell_length_a        43.3335302416
_cell_length_b        13.8968166449
_cell_length_c         8.0646052997
_cell_angle_alpha        89.9997
_cell_angle_beta        89.9802
_cell_angle_gamma        90.0015
_cell_volume          4856.489893
_space_group_crystal_system monoclinic
_space_group_IT_number 9
_space_group_name_H-M_alt 'Cc'
_space_group_name_Hall 'C -2yc'
loop_
_symmetry_equiv_pos_site_id
_symmetry_equiv_pos_as_xyz
 1 'x,y,z'
 2 '-1/4+x,-3/4-y,-1/4+z'
 3 '-1/2+x,y,-1/2+z'
 4 '-3/4+x,-3/4-y,-3/4+z'
 5 'x,-1/2+y,-1/2+z'
 6 '-1/4+x,-1/4-y,-3/4+z'
 7 '-1/2+x,-1/2+y,z'
 8 '-3/4+x,-1/4-y,-1/4+z'
loop_
_atom_site_label
_atom_site_type_symbol
_atom_site_fract_x
_atom_site_fract_y
_atom_site_fract_z
H1    H     0.34860211993997 0.68274435984229 0.51004451992385 
H2    H     0.65140440993765 0.31722609020796 0.50990234013571 
H3    H     0.30616608009415 0.70267638015969 0.70386687949586 
H4    H     0.69382112002495 0.29738668010054 0.70362195970863 
H5    H     0.25270748004144 0.65020586984148 0.62791983007706 
H6    H     0.74728709993717 0.34996927991446 0.62757414030591 
H7    H     0.24289867995557 0.58646931012776 0.34536171052285 
H8    H     0.75709154995345 0.41373136973354 0.34494677035171 
H9    H     0.26039481989351 0.54320693998795 0.07142448944129 
H10   H     0.73959789995356 0.45692048987244 0.07103431048747 
H11   H     0.37601822001186 0.57374224968746 0.50093215977981 
H12   H     0.62397538992296 0.42621752028781 0.50097027061541 
H13   H     0.30179347008666 0.54248174968735 0.85853198043624 
H14   H     0.69821493008555 0.45756705978630 0.85831178024348 
H15   H     0.35294623991684 0.57436197975527 0.77431722025724 
H16   H     0.64707386995489 0.42563486986484 0.77425521033738 
H17   H     0.40775841007063 0.61321296976787 0.83772508995443 
H18   H     0.59225126001499 0.38675929015883 0.83780163044421 
H19   H     0.43126472991810 0.58488258992206 0.55554644045875 
H20   H     0.56872610001222 0.41511220020665 0.55572256000516 
H21   H     0.44879941994295 0.62651706977261 0.03572635965832 
H22   H     0.55119979009511 0.37340744018313 0.03601928019795 
H23   H     0.46842693001561 0.61453002998605 0.32468039049912 
H24   H     0.53157511000009 0.38543916979712 0.32499810938937 
C1    C     0.32606612008711 0.65566884978914 0.47484805014418 
C2    C     0.67393658990881 0.34435121023473 0.47465592956498 
C3    C     0.32180430003724 0.61326439014899 0.31651906983128 
C4    C     0.67819690008932 0.38676363989987 0.31632888993521 
C5    C     0.34648513007295 0.59875037031908 0.19764337986287 
C6    C     0.65351593000534 0.40124962967423 0.19753705037718 
C7    C     0.30181706000655 0.66892440020585 0.58427733019222 
C8    C     0.69818133000599 0.33114439003879 0.58403634994263 
C9    C     0.29061705001648 0.59191869010691 0.26910170019562 
C10   C     0.70938243003772 0.40816181970893 0.26883535960681 
C11   C     0.37915702008296 0.60217336974157 0.23702574061660 
C12   C     0.62084475989999 0.39780718024940 0.23703342952376 
C13   C     0.33810357009350 0.58126200001388 0.03009372010737 
C14   C     0.66189746006340 0.41874608977328 0.02996187948306 
C15   C     0.27169524008053 0.64060834993860 0.54096245051369 
C16   C     0.72830040997491 0.35951853964117 0.54066779014244 
C17   C     0.26629854997698 0.60429331001481 0.38427186980455 
C18   C     0.73369810993829 0.39584060970401 0.38396493957993 
C19   C     0.40102289000049 0.61016738012437 0.10406919002501 
C20   C     0.59898008000329 0.38980399996746 0.10415163984562 
C21   C     0.28403809005831 0.56186993012984 0.10392028005919 
C22   C     0.71595885007245 0.43821159033182 0.10363723009076 
C23   C     0.39136663007568 0.59159525996656 0.39924434963923 
C24   C     0.60863406010589 0.40838139981272 0.39930162053677 
C25   C     0.30685958010457 0.56030193978402 0.98728246999083 
C26   C     0.69313869995996 0.43973908023327 0.98706837052969 
C27   C     0.36067282009854 0.58516300025609 0.90143631989366 
C28   C     0.63932892000650 0.41482967020495 0.90137040945337 
C29   C     0.39080840004918 0.60486884989848 0.93637683994765 
C30   C     0.60919451004319 0.39510725010079 0.93641989968569 
C31   C     0.42275078989863 0.59629180020595 0.43008372012996 
C32   C     0.57724968999956 0.40369274975583 0.43024929005238 
C33   C     0.43290683990044 0.61758352028322 0.13932355989993 
C34   C     0.56709657996281 0.38237002000001 0.13952610952565 
C35   C     0.44376990989152 0.61150494023527 0.29983541038582 
C36   C     0.55623270992623 0.38846663978553 0.30007731039242 
