data_stdin
_audit_creation_method 'critic2'
_audit_creation_date 2023-8-11
_chemical_formula_sum 'C18 H12'
_cell_formula_units_Z 8
_cell_length_a        14.6630374943
_cell_length_b         5.6234086753
_cell_length_c        31.3855926887
_cell_angle_alpha        90.0145
_cell_angle_beta        65.3299
_cell_angle_gamma        90.0025
_cell_volume          2351.727697
_space_group_crystal_system triclinic
_space_group_IT_number 2
_space_group_name_H-M_alt 'P-1'
_space_group_name_Hall '-P 1'
loop_
_symmetry_equiv_pos_site_id
_symmetry_equiv_pos_as_xyz
 1 'x,y,z'
 2 '-x,-y,-z'
loop_
_atom_site_label
_atom_site_type_symbol
_atom_site_fract_x
_atom_site_fract_y
_atom_site_fract_z
H1    H     0.17707397637584 0.31489625159844 0.15945219517201 
H2    H     0.67699238225777 0.81591506006631 0.15938827445009 
H3    H     0.82298792426495 0.31487793724661 0.34054840393643 
H4    H     0.32306655470287 0.81579696795132 0.34060793903268 
H5    H     0.05511064624928 0.60650005967684 0.20881308816349 
H6    H     0.55520713020645 0.10779599033432 0.20876276815654 
H7    H     0.94493041336000 0.60631598867333 0.29116352458106 
H8    H     0.44485302379676 0.10759969229580 0.29123923709445 
H9    H     0.11102437054529 0.95932502375492 0.24024539670877 
H10   H     0.61133287492666 0.46002202274727 0.24027470606453 
H11   H     0.88896772241769 0.95911950280046 0.25977319973479 
H12   H     0.38871817295273 0.45977880015090 0.25974577485234 
H13   H     0.29047993964310 0.99862754995842 0.22473744428692 
H14   H     0.79078729777759 0.49836012898557 0.22483023307629 
H15   H     0.70948048301167 0.99840970501471 0.27531309698251 
H16   H     0.20925585517559 0.49815433322483 0.27520202880456 
H17   H     0.45812556742829 0.84080324329765 0.19426642272431 
H18   H     0.95829487608693 0.33983074460863 0.19438330372621 
H19   H     0.54187532655850 0.84044031491650 0.30574979957115 
H20   H     0.04175258207498 0.33963246100715 0.30564210551420 
H21   H     0.24007807806385 0.34610425093115 0.09099565365208 
H22   H     0.74019468873971 0.84729679124829 0.09091543437369 
H23   H     0.76002289218210 0.34617645205113 0.40901433148329 
H24   H     0.25987053671026 0.84737017109822 0.40909259369673 
H25   H     0.58099608741675 0.52359135496864 0.15133255123109 
H26   H     0.08096031006202 0.02215290338028 0.15145542925722 
H27   H     0.41901243333248 0.52318502718927 0.34871516280014 
H28   H     0.91909846051893 0.02199704422581 0.34855708134688 
H29   H     0.62661855975808 0.17854903983932 0.10459376224305 
H30   H     0.12632621262814 0.67705371386073 0.10474188998869 
H31   H     0.37345058750198 0.17836423362788 0.39544587660720 
H32   H     0.87373256570911 0.67702042272579 0.39527071940565 
H33   H     0.58816448900008 0.85210006650797 0.06110876599522 
H34   H     0.08769024064438 0.35109828914682 0.06121782078679 
H35   H     0.41196788699132 0.85204457032964 0.43889711557649 
H36   H     0.91238517584502 0.35116053962019 0.43878094421707 
H37   H     0.21432257562120 0.04651925463849 0.04069257390015 
H38   H     0.71439505771359 0.54837615167959 0.04050157145483 
H39   H     0.78576514557671 0.04682515360168 0.45932563314600 
H40   H     0.28564403740611 0.54864547170451 0.45951849032725 
H41   H     0.47933195175938 0.67560834909768 0.03005200777150 
H42   H     0.97884991224990 0.17559954513586 0.03006082499894 
H43   H     0.52080406004326 0.67572257310229 0.46994113080728 
H44   H     0.02122521735673 0.17576070122813 0.46993171318283 
H45   H     0.32940566894129 0.69656232993286 0.01240596704270 
H46   H     0.82915494550621 0.19785738319311 0.01225975817340 
H47   H     0.67070420413936 0.69686974017401 0.48760996078618 
H48   H     0.17089200749163 0.19815003893214 0.48775198477653 
C1    C     0.20389092422636 0.47072506835277 0.17108728747788 
C2    C     0.70390062300860 0.97146831178360 0.17106046628680 
C3    C     0.79614928952242 0.47065961080741 0.32892088042424 
C4    C     0.29616008722451 0.97134022404302 0.32894345404888 
C5    C     0.30822200055978 0.49789050394735 0.15830049506238 
C6    C     0.80824096531812 0.99806048407898 0.15831756137464 
C7    C     0.69181665782491 0.49780244600280 0.34172210270318 
C8    C     0.19181841507763 0.99796214473987 0.34169214146568 
C9    C     0.38437251211432 0.33882932618828 0.12678782482949 
C10   C     0.88429693903107 0.83876616668030 0.12681766840449 
C11   C     0.61569114461317 0.33878124061281 0.37323636472962 
C12   C     0.11576789242975 0.83871853427601 0.37318841331240 
C13   C     0.13454816215744 0.63287287672477 0.19992414310637 
C14   C     0.63466076597777 0.13375982853828 0.19990753423094 
C15   C     0.86547710772255 0.63272622753287 0.30007098390175 
C16   C     0.36539493847127 0.13356736869236 0.30009647227708 
C17   C     0.33754437117618 0.68634290118091 0.18080392639146 
C18   C     0.83766532758938 0.18616825930143 0.18085653410130 
C19   C     0.66246349333572 0.68616293345296 0.31922427746218 
C20   C     0.16238663338921 0.18602940780935 0.31916247912762 
C21   C     0.36901388033150 0.17444069696835 0.09475179564970 
C22   C     0.86888034060821 0.67470670303205 0.09474841476603 
C23   C     0.63108241732258 0.17445795949292 0.40526100138964 
C24   C     0.13119107522988 0.67473527528383 0.40525347140901 
C25   C     0.48076321436814 0.34417574083355 0.12733851830198 
C26   C     0.98064219470149 0.84350725505688 0.12741691566408 
C27   C     0.51930081928256 0.34408340529103 0.37268991268396 
C28   C     0.01942025040284 0.84343994326200 0.37259168511812 
C29   C     0.16561729994052 0.83085076743398 0.21795793862951 
C30   C     0.66584312761977 0.33140218771745 0.21798211856730 
C31   C     0.83438066301264 0.83069056400299 0.28206079946654 
C32   C     0.33420912868504 0.33120051127740 0.28203633768442 
C33   C     0.26569836624761 0.85359866936711 0.20912382581598 
C34   C     0.76592478347155 0.35362325509409 0.20917945700799 
C35   C     0.73428846608904 0.85341202384945 0.29091198318367 
C36   C     0.23412473069546 0.35344459035395 0.29084517278045 
C37   C     0.44157966330093 0.99043014926667 0.07324456829143 
C38   C     0.94129170408853 0.49036802350983 0.07326735007274 
C39   C     0.55853679382959 0.99045414970562 0.42676122917245 
C40   C     0.05878332653234 0.49043042847622 0.42673050210970 
C41   C     0.43796870873767 0.69670811661985 0.17665625010834 
C42   C     0.93807402469320 0.19598261167500 0.17674489523089 
C43   C     0.56204223772091 0.69646033067578 0.32336692324717 
C44   C     0.06197735881142 0.19582718191424 0.32327602328498 
C45   C     0.28945063354042 0.19278032825677 0.08037449246944 
C46   C     0.78943152672024 0.69372795254836 0.08030523801436 
C47   C     0.71064631951562 0.19288029206817 0.41963619258202 
C48   C     0.21063240561891 0.69382199414130 0.41970117015780 
C49   C     0.50556289565391 0.52457436532022 0.15269785180627 
C50   C     0.00554649758151 0.02360990948231 0.15279791089113 
C51   C     0.49445718735568 0.52435520479285 0.34733747663600 
C52   C     0.99451045805955 0.02348308172980 0.34721667162376 
C53   C     0.55440886861725 0.16931926578466 0.10250977661438 
C54   C     0.05414977467457 0.66832397308977 0.10261614379120 
C55   C     0.44567343133841 0.16923107371223 0.39751807436929 
C56   C     0.94591510714598 0.66830221055899 0.39739081526944 
C57   C     0.53361798483896 0.99143488419905 0.07835678484954 
C58   C     0.03326198106823 0.49070420581914 0.07844194891237 
C59   C     0.46649195333065 0.99139491465724 0.42165519441102 
C60   C     0.96681124239655 0.49073575515838 0.42155767971018 
C61   C     0.27594176281140 0.02536291752451 0.05117826429253 
C62   C     0.77589818093772 0.52669430033105 0.05105080304041 
C63   C     0.72415547836301 0.02557105591693 0.44883512913322 
C64   C     0.22415630833145 0.52688610141482 0.44895973094803 
C65   C     0.42422651433238 0.81701215392204 0.04481626486485 
C66   C     0.92388042039724 0.31730081931925 0.04479377598745 
C67   C     0.57589962723928 0.81712259002242 0.45518628826569 
C68   C     0.07619266186097 0.31744136268740 0.45520313316564 
C69   C     0.34143409525592 0.82996132387207 0.03466006051006 
C70   C     0.84121601623182 0.33096540930021 0.03455464582939 
C71   C     0.65867758772708 0.83017274949261 0.46535129955939 
C72   C     0.15884316469695 0.33117615441052 0.46545164366239 
