data_stdin
_audit_creation_method 'critic2'
_audit_creation_date 2023-8-11
_chemical_formula_sum 'C18 H12'
_cell_formula_units_Z 4
_cell_length_a         8.1441959286
_cell_length_b        13.7209667500
_cell_length_c        10.9037024736
_cell_angle_alpha        90.0000
_cell_angle_beta        99.9925
_cell_angle_gamma        90.0000
_cell_volume          1199.964440
_space_group_crystal_system monoclinic
_space_group_IT_number 14
_space_group_name_H-M_alt 'P2_1/c'
_space_group_name_Hall '-P 2ybc'
loop_
_symmetry_equiv_pos_site_id
_symmetry_equiv_pos_as_xyz
 1 'x,y,z'
 2 '-x,-y,-z'
 3 '-x,-1/2+y,-1/2-z'
 4 'x,-1/2-y,-1/2+z'
loop_
_atom_site_label
_atom_site_type_symbol
_atom_site_fract_x
_atom_site_fract_y
_atom_site_fract_z
H1    H     0.48765732049405 0.08993367964620 0.50705847010985 
H2    H     0.49753656034714 0.10412729967660 0.73107590012041 
H3    H     0.76384488983647 0.14973341013359 0.87137262983813 
H4    H     0.02478877973933 0.15820485027194 0.78438121989445 
H5    H     0.17423985969550 0.13377417023537 0.61241271020991 
H6    H     0.44607858010340 0.20389315985171 0.39621842041875 
H7    H     0.17186861970106 0.09140420975867 0.39139989015967 
H8    H     0.02814365987846 0.05780130985281 0.18699662982282 
H9    H     0.76915300023361 0.05272300017386 0.02909625005095 
H10   H     0.20351152997694 0.21989649012184 0.23123318045494 
H11   H     0.47892909997294 0.09604362965133 0.96695507006303 
H12   H     0.21386927957895 0.16410848020156 0.01543119043024 
C1    C     0.60436112041337 0.11052744026366 0.56531953987530 
C2    C     0.74867172957216 0.12414233034770 0.51059766035069 
C3    C     0.74897569987527 0.11843253000608 0.37777574026294 
C4    C     0.61026577989134 0.11713833025810 0.69257420037196 
C5    C     0.90442698040976 0.13567982976661 0.59389295004579 
C6    C     0.60250030057422 0.13080553995691 0.28252541990136 
C7    C     0.90362024935077 0.10067539008630 0.33848563963942 
C8    C     0.76075274979588 0.13975156995562 0.77201351964378 
C9    C     0.90561287972112 0.14687907019374 0.72306501024248 
C10   C     0.61146501985355 0.10589899019355 0.15597679989336 
C11   C     0.05707348935734 0.12804421989018 0.54732791961296 
C12   C     0.45253260951940 0.17451834969528 0.30470528002908 
C13   C     0.05615027025845 0.10579495012005 0.42527004954814 
C14   C     0.90816764035039 0.07653945993061 0.21180147976084 
C15   C     0.76598037000190 0.07472327015112 0.12462880035245 
C16   C     0.31629428974812 0.18587506021033 0.21066463024931 
C17   C     0.46921080019889 0.11690286030595 0.06185811029126 
C18   C     0.32241084042846 0.15494517025796 0.08845381984406 
