data_stdin
_audit_creation_method 'critic2'
_audit_creation_date 2023-8-11
_chemical_formula_sum 'C18 H12'
_cell_formula_units_Z 16
_cell_length_a        27.2205459002
_cell_length_b        15.3105805429
_cell_length_c        11.6562281252
_cell_angle_alpha        90.0004
_cell_angle_beta        90.0132
_cell_angle_gamma        90.0051
_cell_volume          4857.876999
_space_group_crystal_system triclinic
_space_group_IT_number 1
_space_group_name_H-M_alt 'P1'
_space_group_name_Hall 'P 1'
loop_
_symmetry_equiv_pos_site_id
_symmetry_equiv_pos_as_xyz
 1 'x,y,z'
 2 'x,-1/2+y,-1/2+z'
loop_
_atom_site_label
_atom_site_type_symbol
_atom_site_fract_x
_atom_site_fract_y
_atom_site_fract_z
H1    H     0.39135562014781 0.19714536014829 0.49456793002355 
H2    H     0.89133402986952 0.69720428994776 0.49469383975287 
H3    H     0.60865906989115 0.80276055984086 0.49483915982847 
H4    H     0.10867516001891 0.30270377015308 0.49493092994467 
H5    H     0.85866695009183 0.44723029968736 0.74483097992254 
H6    H     0.35864376017664 0.94708831979277 0.74489940982924 
H7    H     0.64136494994645 0.05300196991981 0.74466498967248 
H8    H     0.14134407992775 0.55286165970535 0.74453188009469 
H9    H     0.43151889009317 0.23254327986381 0.31331848987671 
H10   H     0.93149288988518 0.73248036975912 0.31339669039235 
H11   H     0.56848217001420 0.76747149997260 0.31353559975243 
H12   H     0.06850074016397 0.26752998015581 0.31358333041223 
H13   H     0.81850154998789 0.48247897994973 0.56349377028196 
H14   H     0.31844572982435 0.98223554024783 0.56356145000274 
H15   H     0.68154942011660 0.01775751013052 0.56338249029971 
H16   H     0.18149301997524 0.51751322005422 0.56324111973404 
H17   H     0.38430084999867 0.23088150978506 0.13004663972752 
H18   H     0.88427279984192 0.73066649973672 0.13013002030755 
H19   H     0.61566960015683 0.76934408005772 0.13027201961531 
H20   H     0.11568848999382 0.26955024976476 0.13032235029652 
H21   H     0.86570716006294 0.48058741011252 0.38025586024441 
H22   H     0.36564052012545 0.98039669012110 0.38031318038328 
H23   H     0.63432814014928 0.01940699019775 0.38011999983335 
H24   H     0.13425269010246 0.51919230994467 0.38000092004260 
H25   H     0.29707162988531 0.18010454012491 0.13129740022576 
H26   H     0.79704592996003 0.67987030984237 0.13145796041552 
H27   H     0.70289073994377 0.82016000980583 0.13162912004009 
H28   H     0.20290599983402 0.32038884014446 0.13174821000869 
H29   H     0.95292083012331 0.42975951008848 0.38166455033927 
H30   H     0.45288586012005 0.92973152023407 0.38170782035563 
H31   H     0.54707315000739 0.07003337022258 0.38141296973855 
H32   H     0.04702800995170 0.56996878975066 0.38131819032139 
H33   H     0.22659316003637 0.12111336973252 0.23199443007959 
H34   H     0.72656543985133 0.62099344005087 0.23223948040918 
H35   H     0.77338057998148 0.87904965985446 0.23241837001000 
H36   H     0.27339866001540 0.37917041008981 0.23261559007111 
H37   H     0.02339203005951 0.37086567967592 0.48250587013207 
H38   H     0.52338557012749 0.87091815026618 0.48253351985293 
H39   H     0.47659101995203 0.12893134028722 0.48213944978302 
H40   H     0.97656897008908 0.62895423993439 0.48207907971917 
H41   H     0.35865883001184 0.28902392988881 0.58647659023160 
H42   H     0.85864794997427 0.78912153990957 0.58651247029679 
H43   H     0.64136607008870 0.71093473024216 0.58674759016384 
H44   H     0.14137334008244 0.21083391028642 0.58674221013863 
H45   H     0.89137463992016 0.53911952997591 0.83666062024034 
H46   H     0.39129241993165 0.03899614030351 0.83678151007107 
H47   H     0.60873164995726 0.96105056997495 0.83655584007579 
H48   H     0.10865058996279 0.46091786990573 0.83636507003249 
H49   H     0.18943194981978 0.06468024984297 0.41195969998278 
H50   H     0.68941328013366 0.56466614020194 0.41227045022515 
H51   H     0.81055921001407 0.93539791000023 0.41245409023543 
H52   H     0.31057128005895 0.43541115993418 0.41271457025952 
H53   H     0.06054986001140 0.31456923980796 0.66258497009104 
H54   H     0.56055657013110 0.81464885003360 0.66260609015520 
H55   H     0.43943211016193 0.18529377970438 0.66215405976137 
H56   H     0.93943304009808 0.68533698009313 0.66209428010778 
H57   H     0.19361714992758 0.03500093023368 0.61272041008105 
H58   H     0.69362571996440 0.53506666982286 0.61305826959874 
H59   H     0.80638087984947 0.96501474975970 0.61322096004388 
H60   H     0.30636938002900 0.46494374970835 0.61351042028480 
H61   H     0.05635639984860 0.28503847014588 0.86338465989439 
H62   H     0.55638783015538 0.78512195020736 0.86335629042079 
H63   H     0.44361590989706 0.21489321981333 0.86289212020483 
H64   H     0.94363917986198 0.71493575019850 0.86288522027449 
H65   H     0.23039313013475 0.06034375975019 0.80426463009024 
H66   H     0.73039791012465 0.56055282984283 0.80456969973045 
H67   H     0.76961959985674 0.93960688016831 0.80472112012169 
H68   H     0.26961401002092 0.43939249009841 0.80497995009061 
H69   H     0.01959184007672 0.31054838026359 0.05485334988974 
H70   H     0.51964400012402 0.81059378991899 0.05486663997396 
H71   H     0.48036212982683 0.18947046972894 0.05444352025779 
H72   H     0.98042142985718 0.68949057999119 0.05439365005006 
H73   H     0.38301285010563 0.33285633023720 0.77855188975479 
H74   H     0.88299925001518 0.83309129991922 0.77853240001132 
H75   H     0.61700409015127 0.66709184002830 0.77879166014293 
H76   H     0.11701631984239 0.16685123971840 0.77873089959868 
H77   H     0.86701642016409 0.58307354996163 0.02865470023792 
H78   H     0.36688256014345 0.08280532011203 0.02881223041021 
H79   H     0.63312559002803 0.91725015996228 0.02861743009644 
H80   H     0.13300489012139 0.41697528030848 0.02838767011067 
H81   H     0.28410722997879 0.14415341006639 0.92497055015294 
H82   H     0.78407118001185 0.64452639020899 0.92517702005543 
H83   H     0.71592180999988 0.85576212032440 0.92534517039059 
H84   H     0.21595807012658 0.35538196994369 0.92550840988412 
H85   H     0.96591653013472 0.39449535004983 0.17539996965924 
H86   H     0.46593838008766 0.89443206988674 0.17544501982737 
H87   H     0.53408283997706 0.10566616022362 0.17510524958063 
H88   H     0.03411570983173 0.60557907019456 0.17501359017131 
H89   H     0.34780018989516 0.26033542986681 0.95099038040690 
H90   H     0.84775942002510 0.76073675005805 0.95106100967310 
H91   H     0.65222167987470 0.73958371983823 0.95128053999923 
H92   H     0.15226295991258 0.23917529002512 0.95130956007510 
H93   H     0.90223500010256 0.51069239994594 0.20122176003634 
H94   H     0.40215634013203 0.01045437993077 0.20132752032469 
H95   H     0.59785390989971 0.98963580000099 0.20108452965464 
H96   H     0.09779230008844 0.48938113025095 0.20090957020641 
C1    C     0.36957466005975 0.19765442999186 0.41666203042170 
C2    C     0.86955049014929 0.69766344968354 0.41679195993877 
C3    C     0.63043299994689 0.80232749976944 0.41694575986431 
C4    C     0.13045083001897 0.30231705022070 0.41704017038084 
C5    C     0.88044494997530 0.44765916996459 0.66694390970752 
C6    C     0.38041805993848 0.94754822999159 0.66700757022477 
C7    C     0.61958378996690 0.05247038018421 0.66676020993763 
C8    C     0.11955739004540 0.55235682019666 0.66663473008868 
C9    C     0.31907217017833 0.17532995993027 0.42196908968319 
C10   C     0.81904846990427 0.67533988996959 0.42213498007763 
C11   C     0.68093030001567 0.82469059989534 0.42230267995259 
C12   C     0.18094795014422 0.32467818002267 0.42242833987547 
C13   C     0.93094104987311 0.42530873029985 0.67232757042620 
C14   C     0.43092526002213 0.92527777011728 0.67237814998688 
C15   C     0.56907162993491 0.07470547008323 0.67208625001425 
C16   C     0.06905567007034 0.57466421019559 0.67197664973852 
C17   C     0.29329195985886 0.15715801982772 0.52796577996692 
C18   C     0.79327224983234 0.65723259011646 0.52815751000828 
C19   C     0.70671817992939 0.84283255011142 0.52832932989292 
C20   C     0.20673355988127 0.34275477978638 0.52847845016350 
C21   C     0.95672178985692 0.40720900001422 0.77837275031858 
C22   C     0.45672008982495 0.90720733007025 0.77842196969196 
C23   C     0.54328511002007 0.09280778009985 0.77809652981235 
C24   C     0.04328500986763 0.59279303024109 0.77799587980723 
C25   C     0.39263649982098 0.21606338984254 0.31379438978740 
C26   C     0.89260998008187 0.71600118978196 0.31389856033524 
C27   C     0.60736092984581 0.78398130022875 0.31404450959471 
C28   C     0.10738000001679 0.28403916974416 0.31411566957865 
C29   C     0.85738076007126 0.46598201002418 0.56402763020881 
C30   C     0.35733555006066 0.96581216002418 0.56409278042819 
C31   C     0.64265580991617 0.03415077031812 0.56387698986905 
C32   C     0.14260952991425 0.53397579011835 0.56374747960755 
C33   C     0.29384794990540 0.16397782994317 0.31491232989658 
C34   C     0.79382259986196 0.66390885983779 0.31509543957824 
C35   C     0.70613857998801 0.83612791023248 0.31526713036833 
C36   C     0.20615633006237 0.33619394971570 0.31540819965019 
C37   C     0.95615487006280 0.41383683980716 0.56530856009758 
C38   C     0.45613615984182 0.91383182026891 0.56535171029973 
C39   C     0.54384458985459 0.08607320969242 0.56503821010677 
C40   C     0.04382262003452 0.58604837026520 0.56493990960122 
C41   C     0.30979751000496 0.18453200002856 0.64058399038126 
C42   C     0.80977983985542 0.68467775003542 0.64074391028391 
C43   C     0.69022096013583 0.81542920005104 0.64092459957849 
C44   C     0.19023562015247 0.31527961005156 0.64104246959914 
C45   C     0.94022194015331 0.43466379014231 0.89094016986658 
C46   C     0.44021226010394 0.93462429013064 0.89100209009609 
C47   C     0.55979880993723 0.06541942013144 0.89070260966930 
C48   C     0.05979589984507 0.56536822025309 0.89058386984631 
C49   C     0.24860448010341 0.10959633983871 0.52087736960112 
C50   C     0.74858932000162 0.60965272000925 0.52112912964816 
C51   C     0.75139799991369 0.89041968005922 0.52129963033791 
C52   C     0.25140881986388 0.39035966029726 0.52150597036809 
C53   C     0.00139433005023 0.35961186027866 0.77138959025504 
C54   C     0.50140845989728 0.85965853979359 0.77142047038449 
C55   C     0.49859021997612 0.14033689014812 0.77103380972156 
C56   C     0.99860401996282 0.64036247997733 0.77096087964580 
C57   C     0.36614461990479 0.21350744985468 0.21007943036235 
C58   C     0.86611679001507 0.71336120972852 0.21018937024788 
C59   C     0.63383464983863 0.78665047023531 0.21033944029921 
C60   C     0.13385379990586 0.28679043984128 0.21041454978247 
C61   C     0.88386432013703 0.46329859001441 0.46033729032362 
C62   C     0.38381253004516 0.96315679023413 0.46039456999085 
C63   C     0.61616092991272 0.03670269970679 0.46016735035930 
C64   C     0.11610522007240 0.53654426997272 0.46005115987090 
C65   C     0.31776733012866 0.18620773001428 0.21104336996237 
C66   C     0.81774066017045 0.68605415006545 0.21119395012802 
C67   C     0.68220766012350 0.81397508979939 0.21135901021413 
C68   C     0.18222536999074 0.31412382012042 0.21147015017201 
C69   C     0.93223375012857 0.43596864018985 0.46138425004648 
C70   C     0.43219873993513 0.93591446968745 0.46143087978567 
C71   C     0.56777135993393 0.06392107018815 0.46115289009840 
C72   C     0.06773023014358 0.56384290012847 0.46105049992826 
C73   C     0.28698743993601 0.14747339983175 0.74038483986823 
C74   C     0.78697070986129 0.64768579985519 0.74058990022030 
C75   C     0.71303182992561 0.85247385997323 0.74075891007176 
C76   C     0.21304670000832 0.35225659026357 0.74092081982210 
C77   C     0.96302544003180 0.39766970967958 0.99080970040015 
C78   C     0.46303968992413 0.89764946019868 0.99085707967166 
C79   C     0.53697305014346 0.10240715990072 0.99052219031686 
C80   C     0.03699426997719 0.60237436968823 0.99042355014553 
C81   C     0.24569785997547 0.12745205996879 0.31368152019974 
C82   C     0.74567255985188 0.62738298025085 0.31391601012022 
C83   C     0.75428550989704 0.87266729031070 0.31409113975857 
C84   C     0.25430285014545 0.37273511016382 0.31427971004001 
C85   C     0.00429449988200 0.37728387997237 0.56416966977629 
C86   C     0.50428848999227 0.87732457984532 0.56419942001675 
C87   C     0.49569098988362 0.12256978018453 0.56382861028531 
C88   C     0.99567863997403 0.62258309986768 0.56375421962388 
C89   C     0.34433419986638 0.25248905998048 0.65894861033138 
C90   C     0.84431993983340 0.75264154014440 0.65902848003188 
C91   C     0.65568753989059 0.74746539030277 0.65924158986023 
C92   C     0.15569908997234 0.24730875006892 0.65928006985948 
C93   C     0.90569269012020 0.50263233020615 0.90919089976126 
C94   C     0.40563888012255 0.00251784982187 0.90928941987860 
C95   C     0.59437675999704 0.99753282018512 0.90903799014501 
C96   C     0.09432992990558 0.49740814968893 0.90887615971905 
C97   C     0.22504210015592 0.09715397985805 0.41272028981240 
C98   C     0.72502238991390 0.59714245978914 0.41299106018697 
C99   C     0.77495027000704 0.90291890011215 0.41316673033539 
C100  C     0.27496366991824 0.40292859026088 0.41339002017763 
C101  C     0.02494818987678 0.34706139998790 0.66326979991039 
C102  C     0.52494991992402 0.84712002974449 0.66329464037821 
C103  C     0.47503829995150 0.15282255010550 0.66288906038336 
C104  C     0.97503651017849 0.65285227995132 0.66282098971211 
C105  C     0.22682808999519 0.07402980006570 0.62196095982945 
C106  C     0.72682527012443 0.57412971996749 0.62225326026118 
C107  C     0.77317713013917 0.92596486993650 0.62241584028167 
C108  C     0.27317696016756 0.42586016012881 0.62266182998033 
C109  C     0.02316080995147 0.32410498009295 0.87253842957400 
C110  C     0.52318741985983 0.82416622017761 0.87254438979627 
C111  C     0.47681730988871 0.17585583029289 0.87212888026631 
C112  C     0.97684232017330 0.67589105016873 0.87208044028306 
C113  C     0.24667278015957 0.08892059979450 0.72768895010177 
C114  C     0.74666843992120 0.58909851021818 0.72796273958809 
C115  C     0.75334081989061 0.91103960012212 0.72812079982929 
C116  C     0.25334325012628 0.41085673031990 0.72834936989615 
C117  C     0.00332224998807 0.33908567981477 0.97822702008147 
C118  C     0.50336024983136 0.83912007012963 0.97824968034148 
C119  C     0.49664931010442 0.16092966007013 0.97785634018985 
C120  C     0.99669125991701 0.66094500987941 0.97778948999839 
C121  C     0.35763173010400 0.27854650979832 0.76818323958113 
C122  C     0.85761505011672 0.77877882003095 0.76823147957102 
C123  C     0.64238851011829 0.72139632017325 0.76845636017769 
C124  C     0.14240382006139 0.22115826025499 0.76846344978648 
C125  C     0.89239530008598 0.52876375024073 0.01837882015194 
C126  C     0.39231592996683 0.02857668990715 0.01849435030472 
C127  C     0.60769571991788 0.97148430030802 0.01826254018700 
C128  C     0.10762768014246 0.47128782012589 0.01808193981807 
C129  C     0.30226689991336 0.17378289001516 0.85122171980083 
C130  C     0.80223984985370 0.67409016999958 0.85139490000532 
C131  C     0.69775715990336 0.82614430002894 0.85157406963292 
C132  C     0.19778356010456 0.32583082976893 0.85170449975538 
C133  C     0.94775472983716 0.42406648018334 0.10159799973674 
C134  C     0.44775447992428 0.92398449978560 0.10165922019336 
C135  C     0.55226189014544 0.07609323998967 0.10134789008997 
C136  C     0.05227183001047 0.57599767009967 0.10123122015670 
C137  C     0.33727633011608 0.23813133996651 0.86566666987151 
C138  C     0.83724796998456 0.73845128971353 0.86576506001645 
C139  C     0.66274569990991 0.76179781031709 0.86597169993656 
C140  C     0.16277356998839 0.26147167006045 0.86602825016749 
C141  C     0.91275175013086 0.48842348985312 0.11593359967210 
C142  C     0.41269871006839 0.98824837018273 0.11602752025909 
C143  C     0.58731398015316 0.01182551983340 0.11576496026015 
C144  C     0.08727426017456 0.51164080979982 0.11560825998101 
