data_stdin
_audit_creation_method 'critic2'
_audit_creation_date 2023-8-11
_chemical_formula_sum 'C18 H12'
_cell_formula_units_Z 8
_cell_length_a        24.3569628904
_cell_length_b        10.6508465635
_cell_length_c         9.4419443041
_cell_angle_alpha        90.0008
_cell_angle_beta        81.3297
_cell_angle_gamma        90.0014
_cell_volume          2421.458453
_space_group_crystal_system monoclinic
_space_group_IT_number 15
_space_group_name_H-M_alt 'C2/c'
_space_group_name_Hall '-C 2yc'
loop_
_symmetry_equiv_pos_site_id
_symmetry_equiv_pos_as_xyz
 1 'x,y,z'
 2 '-1/2-x,-1/2-y,-z'
 3 '-1/2-x,-1/2+y,-1/2-z'
 4 'x,-y,-1/2+z'
 5 '-1/2+x,-1/2+y,z'
 6 '-x,-y,-z'
 7 '-x,y,-1/2-z'
 8 '-1/2+x,-1/2-y,-1/2+z'
loop_
_atom_site_label
_atom_site_type_symbol
_atom_site_fract_x
_atom_site_fract_y
_atom_site_fract_z
H1    H     0.21768709018175 0.18541270036907 0.47290796024515 
H2    H     0.28796418011056 0.09233062970377 0.29241918049418 
H3    H     0.28456957002029 0.86401564005718 0.23307523051413 
H4    H     0.21495961015137 0.72821792036600 0.37907733970698 
H5    H     0.14055965007699 0.69927287013310 0.57362504025522 
H6    H     0.14912274014823 0.25575927969886 0.42757358027939 
H7    H     0.07509026990077 0.78668181038529 0.77787604012226 
H8    H     0.03618534984161 0.95820044979334 0.91822992967441 
H9    H     0.02347131011372 0.18691370014506 0.96196739975148 
H10   H     0.12626071979251 0.47810668984053 0.46054822039616 
H11   H     0.03796427009851 0.40022461020944 0.88110510957041 
H12   H     0.07329911978328 0.55493987020739 0.69259616042344 
C1    C     0.21429585994903 0.08667997037438 0.44749565959848 
C2    C     0.17077521007810 0.01400234018777 0.52388061053520 
C3    C     0.12661491985755 0.06518501009903 0.62798897039967 
C4    C     0.25448861018104 0.03385453989367 0.34583830969574 
C5    C     0.17366875002529 0.88083755993914 0.50183261000993 
C6    C     0.11210888985952 0.19731661037482 0.64047704015089 
C7    C     0.09529041987302 0.98052722007938 0.72463022006278 
C8    C     0.25345690017156 0.90474047996437 0.31494778973286 
C9    C     0.21418544993183 0.82950239962893 0.39440981961111 
C10   C     0.07639159009655 0.24040776042080 0.76595270045880 
C11   C     0.13724007983552 0.80008587991329 0.59229715016321 
C12   C     0.12768502013070 0.28699774963164 0.53057659964005 
C13   C     0.10107630016930 0.84824594977978 0.70358940957348 
C14   C     0.05782210991268 0.02642589042610 0.84414964996047 
C15   C     0.05061755015191 0.15197573019329 0.86804738000359 
C16   C     0.11385876004896 0.41271888998436 0.54824627959425 
C17   C     0.06445361995803 0.36993793983074 0.78369245049577 
C18   C     0.08349405978582 0.45574355040986 0.67784211021832 
