data_stdin
_audit_creation_method 'critic2'
_audit_creation_date 2023-8-11
_chemical_formula_sum 'C18 H12'
_cell_formula_units_Z 8
_cell_length_a        14.3461327922
_cell_length_b        11.5036591200
_cell_length_c        14.9089244817
_cell_angle_alpha        90.0000
_cell_angle_beta        89.9981
_cell_angle_gamma        90.0000
_cell_volume          2460.464851
_space_group_crystal_system orthorhombic
_space_group_IT_number 60
_space_group_name_H-M_alt 'Pbcn'
_space_group_name_Hall '-P 2n 2ab'
loop_
_symmetry_equiv_pos_site_id
_symmetry_equiv_pos_as_xyz
 1 'x,y,z'
 2 '-x,-y,-z'
 3 '-1/2-x,-1/2-y,-1/2+z'
 4 '-1/2+x,-1/2+y,-1/2-z'
 5 '-1/2+x,-1/2-y,-z'
 6 '-1/2-x,-1/2+y,z'
 7 '-x,y,-1/2-z'
 8 'x,-y,-1/2+z'
loop_
_atom_site_label
_atom_site_type_symbol
_atom_site_fract_x
_atom_site_fract_y
_atom_site_fract_z
H1    H     0.56461280980351 0.81431081983219 0.19318885013345 
H2    H     0.41882643985284 0.70270533031097 0.18492526980707 
H3    H     0.33829479994609 0.67447128024173 0.03883398000720 
H4    H     0.40048748022059 0.77085057972643 0.90263562015181 
H5    H     0.51219095006588 0.89671830040280 0.83051986970894 
H6    H     0.68486531003564 0.73394436032007 0.18084805025584 
H7    H     0.65142556967408 0.02497023978844 0.83922740005713 
H8    H     0.77876086023164 0.10545834009075 0.91951486982484 
H9    H     0.88374815968940 0.11161007017004 0.05107695027938 
H10   H     0.80151426012631 0.72598520966632 0.29946317973439 
H11   H     0.93472771005101 0.03060229022411 0.19163694974496 
H12   H     0.92489335979714 0.87862619036626 0.31069995031103 
C1    C     0.53304922968512 0.79831443040709 0.12823037979721 
C2    C     0.57551918020651 0.84518258003991 0.05028824013164 
C3    C     0.66467777967004 0.90445237969419 0.05036158968799 
C4    C     0.44980371012526 0.73775171990659 0.12395725031195 
C5    C     0.52306149002124 0.83885322008825 0.96844815016083 
C6    C     0.73355126969054 0.89509588995603 0.12140190988795 
C7    C     0.68680882988206 0.97511361995331 0.97516775020641 
C8    C     0.40328646978239 0.72287811031562 0.04168358980781 
C9    C     0.43868400999275 0.77524149010592 0.96569063012133 
C10   C     0.81089071025577 0.97433343971834 0.12249186970698 
C11   C     0.55380848994451 0.90172941018842 0.89154947009233 
C12   C     0.73470429985182 0.80445989993037 0.18605398982599 
C13   C     0.63062580970525 0.97151433022942 0.89615285977499 
C14   C     0.76607066998775 0.05002186998196 0.97734289030885 
C15   C     0.82408394029363 0.05317355003027 0.04979260999404 
C16   C     0.80199289983364 0.79847172960345 0.25245127981269 
C17   C     0.87739703966528 0.96835450034178 0.19257951031004 
C18   C     0.87264012996030 0.88323785982593 0.25781918004619 
