data_stdin
_audit_creation_method 'critic2'
_audit_creation_date 2023-8-11
_chemical_formula_sum 'C18 H12'
_cell_formula_units_Z 4
_cell_length_a        15.5244781244
_cell_length_b         4.0741826449
_cell_length_c        18.2884508306
_cell_angle_alpha        90.0155
_cell_angle_beta        90.0023
_cell_angle_gamma        89.9985
_cell_volume          1156.736413
_space_group_crystal_system orthorhombic
_space_group_IT_number 33
_space_group_name_H-M_alt 'Pna2_1'
_space_group_name_Hall 'P 2c -2n'
loop_
_symmetry_equiv_pos_site_id
_symmetry_equiv_pos_as_xyz
 1 'x,y,z'
 2 '-x,-y,-1/2+z'
 3 '-1/2-x,-1/2+y,-1/2+z'
 4 '-1/2+x,-1/2-y,z'
loop_
_atom_site_label
_atom_site_type_symbol
_atom_site_fract_x
_atom_site_fract_y
_atom_site_fract_z
H1    H     0.45512553016781 0.88971561005054 0.99253244984746 
H2    H     0.54821969972483 0.77249906093535 0.09573621002472 
H3    H     0.49981333012994 0.39261262057358 0.19530331983962 
H4    H     0.35205433018287 0.15684311897404 0.18967570975309 
H5    H     0.21426329030859 0.10118368999060 0.13194593987851 
H6    H     0.45773994000438 0.67746213097536 0.90030664976150 
H7    H     0.11302292987112 0.24761901071031 0.03230560023072 
H8    H     0.07892854995116 0.53654389943550 0.92462185013877 
H9    H     0.11855530001182 0.89987662963697 0.82059555977005 
H10   H     0.49580982023020 0.99044445913744 0.79096028995887 
H11   H     0.22750664994777 0.15314230949649 0.74596377987421 
H12   H     0.38083121976810 0.24381069932721 0.71364388994811 
C1    C     0.43405238016754 0.70893044046391 0.03209971977560 
C2    C     0.35159596971304 0.56250903898518 0.02442812999748 
C3    C     0.29495464028912 0.61641700965824 0.96243065000899 
C4    C     0.48611123016467 0.64929569926304 0.09198960022262 
C5    C     0.32131165974301 0.37156301094899 0.08525518992737 
C6    C     0.32059067968873 0.77102120052403 0.89424226019432 
C7    C     0.20752048993626 0.51956217024408 0.96963450019688 
C8    C     0.45797893020341 0.44305987883897 0.14883846974526 
C9    C     0.37614684002536 0.31163038042732 0.14560605021645 
C10   C     0.25524406970518 0.88682829067620 0.84511288978997 
C11   C     0.23519031021463 0.25105858024360 0.08593972981192 
C12   C     0.40709993011691 0.80172006916141 0.87030716019019 
C13   C     0.17968631976042 0.33113585945828 0.03096139008326 
C14   C     0.14521394985959 0.61567067987161 0.91649764004719 
C15   C     0.16713180975746 0.80983023042221 0.85866286027046 
C16   C     0.42843300968860 0.96899885048804 0.80696629981870 
C17   C     0.27861881977358 0.06143264899661 0.78127043012816 
C18   C     0.36387783983825 0.10826320938385 0.76281037972995 
