data_stdin
_audit_creation_method 'critic2'
_audit_creation_date 2023-8-11
_chemical_formula_sum 'C18 H12'
_cell_formula_units_Z 8
_cell_length_a        20.8721395216
_cell_length_b         3.8155784359
_cell_length_c        30.3715820088
_cell_angle_alpha        89.8523
_cell_angle_beta        72.4378
_cell_angle_gamma        89.8927
_cell_volume          2306.023374
_space_group_crystal_system triclinic
_space_group_IT_number 2
_space_group_name_H-M_alt 'P-1'
_space_group_name_Hall '-P 1'
loop_
_symmetry_equiv_pos_site_id
_symmetry_equiv_pos_as_xyz
 1 'x,y,z'
 2 '-x,-y,-z'
loop_
_atom_site_label
_atom_site_type_symbol
_atom_site_fract_x
_atom_site_fract_y
_atom_site_fract_z
H1    H     0.04027515725127 0.53446862452520 0.19611351431853 
H2    H     0.54033814701871 0.03401937585439 0.19608075766113 
H3    H     0.95988994128332 0.53339469119468 0.30404453799231 
H4    H     0.45982678265369 0.03296095341026 0.30407689403015 
H5    H     0.09192350739583 0.44759801099183 0.25777745311926 
H6    H     0.59203843720625 0.94681894874897 0.25771207564778 
H7    H     0.90832578541252 0.44650468644465 0.24240550044830 
H8    H     0.40821064055810 0.94574794901889 0.24247060189640 
H9    H     0.21044838334021 0.63165836771729 0.24676183779357 
H10   H     0.71051355918969 0.13165269521122 0.24672012381391 
H11   H     0.78972753592009 0.63051594709090 0.25328621900989 
H12   H     0.28966163120778 0.13053208718393 0.25332785686005 
H13   H     0.27809902585755 0.87109931665168 0.17089896311111 
H14   H     0.77808058869127 0.37217065359646 0.17090299591444 
H15   H     0.72192331032627 0.86974160550359 0.32902192913238 
H16   H     0.22194026845068 0.37082157359272 0.32901807874434 
H17   H     0.29115852144722 0.00596000654669 0.09036168849375 
H18   H     0.79111836555925 0.50719898257754 0.09038101790633 
H19   H     0.70874898074622 0.00437580428133 0.40947980505116 
H20   H     0.20878780167053 0.50561111846978 0.40946096144043 
H21   H     0.99333666107826 0.98333751245908 0.18844652460597 
H22   H     0.49330235770926 0.48285040491241 0.18846343644488 
H23   H     0.00667363819861 0.98148644595344 0.31141199110323 
H24   H     0.50670738427924 0.48101025393756 0.31139512442123 
H25   H     0.24518240487179 0.00332607525827 0.02426770379679 
H26   H     0.74514189328540 0.50454752927005 0.02427984574407 
H27   H     0.75472422876342 0.00309464410989 0.47557648728309 
H28   H     0.25476447289525 0.50431143578089 0.47556427427476 
H29   H     0.15578159754220 0.87405897045697 0.99191264779646 
H30   H     0.65575247162543 0.37536659742929 0.99191938195978 
H31   H     0.84416017164596 0.87504960448046 0.50803265760161 
H32   H     0.34418994168467 0.37635534264383 0.50802476187217 
H33   H     0.03586537389675 0.75167153969731 0.00137652255828 
H34   H     0.53586732940702 0.25211127418539 0.00137547768459 
H35   H     0.96413293772545 0.75309635690588 0.49869229195411 
H36   H     0.46413237922491 0.25353452152292 0.49869209148667 
H37   H     0.87415806466952 0.01309062851588 0.19425747284094 
H38   H     0.37411486834283 0.51227394560927 0.19427079774881 
H39   H     0.12580925738495 0.01178087054085 0.30562662452486 
H40   H     0.62585243938841 0.51096446267062 0.30561256385819 
H41   H     0.91984916754051 0.75992209940590 0.05016973696289 
H42   H     0.41986601750132 0.25949297378564 0.05016359258845 
H43   H     0.08013450595208 0.76112687663212 0.44993032912387 
H44   H     0.58011907195838 0.26069735027520 0.44993527610704 
H45   H     0.83552735865406 0.88517090908824 0.12594850638519 
H46   H     0.33551835572930 0.38411324537994 0.12594275386378 
H47   H     0.16443934309305 0.88549100448430 0.37406946968244 
H48   H     0.66444952387935 0.38442820766032 0.37407414417633 
C1    C     0.09126590720933 0.62529079788939 0.19096467311773 
C2    C     0.59130956808723 0.12512846157071 0.19094034577212 
C3    C     0.90886291328709 0.62419289098823 0.30913006251594 
C4    C     0.40881882451767 0.12404468063668 0.30915410261830 
C5    C     0.12733480160871 0.77668647834477 0.14794017757168 
C6    C     0.62733956701778 0.27697509452786 0.14793665415922 
C7    C     0.87271078529308 0.77558815885253 0.35206680222877 
C8    C     0.37270545043991 0.27588588070448 0.35207013130522 
C9    C     0.09877975751556 0.83047424742687 0.11054446517240 
C10   C     0.59877251877046 0.33078238424850 0.11054720527067 
C11   C     0.90123005014367 0.82977326060367 0.38943286494079 
C12   C     0.40123719017495 0.33008805666613 0.38942972743762 
C13   C     0.12063898103397 0.57145370836830 0.22556821538026 
C14   C     0.62070701040569 0.07115292126254 0.22552753333409 
C15   C     0.87953910555287 0.57035020976175 0.27454262727614 
C16   C     0.37947069650744 0.07006921892304 0.27458300930043 
C17   C     0.19721989918575 0.84914085759053 0.14042607864566 
C18   C     0.69720675026831 0.34983782794007 0.14042927025855 
C19   C     0.80278991494195 0.84785321196425 0.35952640456391 
C20   C     0.30280210712354 0.34855725631400 0.35952323958823 
C21   C     0.02738911529502 0.83969221620033 0.11605341328179 
C22   C     0.52737983868884 0.33958812064391 0.11605840639962 
C23   C     0.97261579603820 0.83916397623460 0.38393296836082 
C24   C     0.47262512949590 0.33906637930597 0.38392753213692 
C25   C     0.14356415139040 0.87811507608731 0.06540016101717 
C26   C     0.64354559481010 0.37886324278855 0.06540835192654 
C27   C     0.85641112625750 0.87789160371551 0.43453853951729 
C28   C     0.35642975923397 0.37864238218157 0.43452990027335 
C29   C     0.18780980837205 0.67016350670927 0.21913908960890 
C30   C     0.68785447173744 0.17027686663749 0.21911030560749 
C31   C     0.81232520902274 0.66896999506988 0.28090064240739 
C32   C     0.31227978631300 0.16910094240169 0.28092934874009 
C33   C     0.22538090606416 0.80433883706998 0.17703725388932 
C34   C     0.72538297173138 0.30500193497061 0.17703291866723 
C35   C     0.77467088465049 0.80301098817824 0.32292934073738 
C36   C     0.27466769101098 0.30368481744851 0.32293375755747 
C37   C     0.00515521664934 0.79899761604448 0.07607593569154 
C38   C     0.50515791415587 0.29891301951908 0.07607697286123 
C39   C     0.99484416720217 0.79930774114955 0.42395601984058 
C40   C     0.49484218353002 0.29922636728795 0.42395423714225 
C41   C     0.23833079513828 0.94808498712067 0.09552805501424 
C42   C     0.73829933839703 0.44912778933053 0.09554061166178 
C43   C     0.76161177425038 0.94687474966328 0.40435728241260 
C44   C     0.26164230369744 0.44791784408393 0.40434487513029 
C45   C     0.97790118798370 0.92017414760003 0.15830284621667 
C46   C     0.47787602782016 0.41971716884031 0.15831496169359 
C47   C     0.02209768434154 0.91904222462663 0.34162702130814 
C48   C     0.52212277576319 0.41859240396311 0.34161461379093 
C49   C     0.21288149363927 0.94741796004572 0.05906046508836 
C50   C     0.71285258417352 0.44846386264197 0.05907191219078 
C51   C     0.78705662326489 0.94686518193492 0.44082618439570 
C52   C     0.28708521955987 0.44791059585487 0.44081459923566 
C53   C     0.11958744844870 0.85117987469264 0.02621622846645 
C54   C     0.61957313892888 0.35202597934581 0.02622129438638 
C55   C     0.88037998626854 0.85176104823615 0.47375319621421 
C56   C     0.38039490791310 0.35260767398598 0.47374724531572 
C57   C     0.05336854744024 0.78793153459747 0.03138335877602 
C58   C     0.55337230704309 0.28832650518182 0.03138233798829 
C59   C     0.94662470098299 0.78879465320569 0.46865163647549 
C60   C     0.44662196826924 0.28919075839685 0.46865166536206 
C61   C     0.91047345275206 0.94009478463872 0.16154793920835 
C62   C     0.41044474655933 0.43936807088357 0.16156017479407 
C63   C     0.08950728173409 0.93926220774131 0.33839057150574 
C64   C     0.58953632579172 0.43853682373405 0.33837776432130 
C65   C     0.93559416389776 0.80075648497455 0.08087574682389 
C66   C     0.43559769137548 0.30030588466562 0.08087598582069 
C67   C     0.06439608068116 0.80135085082726 0.41918044070224 
C68   C     0.56439362528259 0.30090093118376 0.41917923136139 
C69   C     0.88875105657097 0.87069463580675 0.12290494865971 
C70   C     0.38874028931413 0.36992752413721 0.12291073541633 
C71   C     0.11123059342841 0.87077685569943 0.37710537827610 
C72   C     0.61124218850266 0.37000871539686 0.37709872982487 
