data_stdin
_audit_creation_method 'critic2'
_audit_creation_date 2023-8-11
_chemical_formula_sum 'C18 H12'
_cell_formula_units_Z 2
_cell_length_a         9.1641828252
_cell_length_b         6.9780908800
_cell_length_c        10.4748560386
_cell_angle_alpha        90.0000
_cell_angle_beta        63.0942
_cell_angle_gamma        90.0000
_cell_volume           597.340912
_space_group_crystal_system monoclinic
_space_group_IT_number 4
_space_group_name_H-M_alt 'P2_1'
_space_group_name_Hall 'P 2yb'
loop_
_symmetry_equiv_pos_site_id
_symmetry_equiv_pos_as_xyz
 1 'x,y,z'
 2 '-x,-1/2+y,-z'
loop_
_atom_site_label
_atom_site_type_symbol
_atom_site_fract_x
_atom_site_fract_y
_atom_site_fract_z
H1    H     0.29781395003940 0.99604621024701 0.74522078952507 
H2    H     0.43649208987768 0.74549199930169 0.56936750975668 
H3    H     0.73935234948590 0.74589472983173 0.42711601045775 
H4    H     0.89898905051743 0.01963085948969 0.45302149947915 
H5    H     0.91099220013414 0.32775502045778 0.54761796008227 
H6    H     0.24408778977903 0.97155394063538 0.93568996975583 
H7    H     0.77041104025896 0.60505094988246 0.70585318017859 
H8    H     0.53888366941398 0.74951721945879 0.88913179041848 
H9    H     0.25751328004830 0.73207749069082 0.08744239027314 
H10   H     0.97614330985138 0.95899740047102 0.14025512008265 
H11   H     0.01689602068128 0.55291037066148 0.23055338970503 
H12   H     0.85535856995089 0.24950748056503 0.29016904053454 
C1    C     0.43032273936118 0.99780266994029 0.68863276032116 
C2    C     0.51793633941332 0.14687160980521 0.71575941047176 
C3    C     0.44348253988076 0.29330981032683 0.82505240966888 
C4    C     0.50801294966858 0.85743043043386 0.58696239985931 
C5    C     0.69019379932443 0.15702908939358 0.62169742040161 
C6    C     0.28407472033715 0.27654372058000 0.94882073995659 
C7    C     0.53612929051642 0.46198958928712 0.81248594990800 
C8    C     0.67918243025786 0.85886494027940 0.50507658021805 
C9    C     0.76769395038830 0.00875361987195 0.52130110964340 
C10   C     0.21791599996736 0.43909560963164 0.04161890035434 
C11   C     0.78108425971507 0.32245288004824 0.62237203004749 
C12   C     0.19305205056607 0.10356007013200 0.99267963978052 
C13   C     0.70418961948749 0.47393816936192 0.70928409023546 
C14   C     0.46535064986797 0.62071611988798 0.90616931046830 
C15   C     0.31031483973864 0.61128542963056 0.01523480011039 
C16   C     0.04197947037242 0.09469256974330 0.11175131997140 
C17   C     0.06321277009424 0.42625764960776 0.16310127026863 
C18   C     0.97423799951690 0.25814617951453 0.19679401996976 
