data_stdin
_audit_creation_method 'critic2'
_audit_creation_date 2023-8-11
_chemical_formula_sum 'C18 H12'
_cell_formula_units_Z 4
_cell_length_a         9.8841423771
_cell_length_b        24.6625796916
_cell_length_c         5.0234700853
_cell_angle_alpha        89.9978
_cell_angle_beta        80.4452
_cell_angle_gamma        90.0126
_cell_volume          1207.575407
_space_group_crystal_system triclinic
_space_group_IT_number 2
_space_group_name_H-M_alt 'P-1'
_space_group_name_Hall '-P 1'
loop_
_symmetry_equiv_pos_site_id
_symmetry_equiv_pos_as_xyz
 1 'x,y,z'
 2 '-x,-y,-z'
loop_
_atom_site_label
_atom_site_type_symbol
_atom_site_fract_x
_atom_site_fract_y
_atom_site_fract_z
H1    H     0.05718095036454 0.96873483986442 0.37225636962911 
H2    H     0.94276800010120 0.46873052983240 0.12780864044669 
H3    H     0.10171333987241 0.03891251006507 0.02717534002743 
H4    H     0.89829960992155 0.53891789015128 0.47277011004853 
H5    H     0.31253078030023 0.03498791015921 0.67350587956606 
H6    H     0.68748392000890 0.53498892985200 0.82647051053829 
H7    H     0.49004783983901 0.96548666989567 0.71323972059459 
H8    H     0.50991220998414 0.46547421018323 0.78686731904068 
H9    H     0.57799205023543 0.89362893002828 0.96362607099827 
H10   H     0.42186407950937 0.39362842009449 0.53647112092980 
H11   H     0.96171339048124 0.90104304020054 0.29899302929714 
H12   H     0.03815231966421 0.40103211992573 0.20113433900919 
H13   H     0.54815096031495 0.83008709004129 0.35326839984725 
H14   H     0.45162678973670 0.33009880004525 0.14684205030899 
H15   H     0.41108435999641 0.79116707005467 0.74482606041115 
H16   H     0.58864988021828 0.29117639995242 0.75536086906168 
H17   H     0.18684861044647 0.77566211991174 0.03381367906801 
H18   H     0.81287633005008 0.27567064001029 0.46636223010263 
H19   H     0.74001169969367 0.87083344985802 0.53800159066934 
H20   H     0.25983056978805 0.37085087002828 0.96208781032110 
H21   H     0.93999316973065 0.78059273999594 0.09529619072185 
H22   H     0.05977761032454 0.28060548980262 0.40488072001893 
H23   H     0.72529118967975 0.81120948013051 0.94595743038413 
H24   H     0.27449378011822 0.31124179016274 0.55402120004799 
C1    C     0.14883266009474 0.96575932992163 0.22057382022759 
C2    C     0.85111412961150 0.46575581993296 0.27949719913351 
C3    C     0.24207969963931 0.92260919983453 0.23423841987519 
C4    C     0.75782159951424 0.42260289992763 0.26588211061516 
C5    C     0.21773720027805 0.87871261982944 0.42801721062243 
C6    C     0.78211346048244 0.37870829991523 0.07213110016185 
C7    C     0.17472362983485 0.00586311007134 0.02606862932303 
C8    C     0.82526130961028 0.50586352985275 0.47394023010153 
C9    C     0.37128150026076 0.92550009014182 0.05661940058402 
C10   C     0.62862428014949 0.42549238984913 0.44349977020283 
C11   C     0.08329021959488 0.86276283020109 0.56805886013443 
C12   C     0.91654132036547 0.36276055995891 0.93208228972682 
C13   C     0.33287830954582 0.84851892015533 0.48011992952817 
C14   C     0.66693520014629 0.34851747000422 0.02003996926694 
C15   C     0.29485692020659 0.00440313993918 0.83164939014369 
C16   C     0.70513096971174 0.50440102980877 0.66837179956996 
C17   C     0.39266567955640 0.96532511997097 0.85131480070765 
C18   C     0.60728638011432 0.46531676985913 0.64876933028340 
C19   C     0.07394116015263 0.82562212010936 0.79033099990124 
C20   C     0.92584792006652 0.32562323995327 0.70982440987845 
C21   C     0.47978894964425 0.89005093993034 0.09754800084217 
C22   C     0.52006831954343 0.39004766008927 0.40257465954838 
C23   C     0.95866859033946 0.87750419009274 0.48211342084986 
C24   C     0.04118081980839 0.37750217983773 0.01800626074615 
C25   C     0.46296241048606 0.85498523986705 0.31111276907511 
C26   C     0.53685343991993 0.35498753014641 0.18902134004109 
C27   C     0.31945726008089 0.81170499008472 0.70198827031428 
C28   C     0.68031147964581 0.31170622991790 0.79819155984565 
C29   C     0.19551610033967 0.80275704016030 0.86108561021856 
C30   C     0.80423836986420 0.30275888985840 0.63909142957708 
C31   C     0.83278779049246 0.85944128003225 0.61502630944969 
C32   C     0.16704528987281 0.35945295997537 0.88507029047442 
C33   C     0.94387388959670 0.80861167006319 0.92658653097732 
C34   C     0.05589545982629 0.30862492005511 0.57356480013875 
C35   C     0.82453155985186 0.82546275993896 0.84225096029505 
C36   C     0.17527497012124 0.32548785984468 0.65782581917751 
