data_stdin
_audit_creation_method 'critic2'
_audit_creation_date 2023-8-11
_chemical_formula_sum 'C18 H12'
_cell_formula_units_Z 2
_cell_length_a        10.2833884482
_cell_length_b        15.5782521422
_cell_length_c         3.8395036159
_cell_angle_alpha        96.6900
_cell_angle_beta        92.7801
_cell_angle_gamma        70.5783
_cell_volume           576.096655
_space_group_crystal_system triclinic
_space_group_IT_number 2
_space_group_name_H-M_alt 'P-1'
_space_group_name_Hall '-P 1'
loop_
_symmetry_equiv_pos_site_id
_symmetry_equiv_pos_as_xyz
 1 'x,y,z'
 2 '-x,-y,-z'
loop_
_atom_site_label
_atom_site_type_symbol
_atom_site_fract_x
_atom_site_fract_y
_atom_site_fract_z
H1    H     0.57406802036241 0.39767771971308 0.40090033909259 
H2    H     0.67192025043174 0.52086396995283 0.42402474129891 
H3    H     0.89750932001509 0.49507283994198 0.14594789051431 
H4    H     0.02623350985005 0.34048586979980 0.85549895015103 
H5    H     0.05209994027337 0.18083296997283 0.70219971036338 
H6    H     0.44484806030899 0.37286610963631 0.03946026922283 
H7    H     0.97084295006839 0.04971202997470 0.74664897989594 
H8    H     0.81112209984509 0.98661688992554 0.95564981931031 
H9    H     0.58701755038880 0.00469623014424 0.21877847087466 
H10   H     0.21243972955480 0.38416065989273 0.19708956073078 
H11   H     0.35399170043398 0.10008057969216 0.37175426940550 
H12   H     0.16462721011021 0.24944719005656 0.38211615971523 
C1    C     0.66863014967728 0.38546873972105 0.26068858039609 
C2    C     0.73607255004178 0.29738042019608 0.08553932037297 
C3    C     0.68211398033733 0.22203322975095 0.06666838048691 
C4    C     0.72516945002458 0.45492122031455 0.28024787046158 
C5    C     0.87056926968502 0.28148908014560 0.94908478971631 
C6    C     0.54112683023796 0.23163277980030 0.14531990936424 
C7    C     0.77403535968809 0.13237256971320 0.97211848021619 
C8    C     0.85349994005660 0.43998660968810 0.12733857917516 
C9    C     0.92502365029080 0.35423548985216 0.96699299069817 
C10   C     0.50964520978237 0.15231532024046 0.21564568935932 
C11   C     0.95155023980034 0.19145395028898 0.81209577894773 
C12   C     0.42873545996872 0.31403199001040 0.13258026927997 
C13   C     0.90645046954144 0.11925719037929 0.83483126115810 
C14   C     0.73635906022929 0.05441498993387 0.02211021041314 
C15   C     0.61233404030865 0.06421484021730 0.16328722048977 
C16   C     0.29633808987846 0.31996662007849 0.21492154965519 
C17   C     0.37437471030511 0.16101578972154 0.31160337947614 
C18   C     0.26904710954161 0.24376912025169 0.31568606967188 
