data_stdin
_audit_creation_method 'critic2'
_audit_creation_date 2023-8-11
_chemical_formula_sum 'C18 H12'
_cell_formula_units_Z 2
_cell_length_a        10.1428088850
_cell_length_b         6.7189975900
_cell_length_c         9.3962506499
_cell_angle_alpha        90.0001
_cell_angle_beta        71.7416
_cell_angle_gamma        90.0001
_cell_volume           608.110200
_space_group_crystal_system monoclinic
_space_group_IT_number 4
_space_group_name_H-M_alt 'P2_1'
_space_group_name_Hall 'P 2yb'
loop_
_symmetry_equiv_pos_site_id
_symmetry_equiv_pos_as_xyz
 1 'x,y,z'
 2 '-x,-1/2+y,-z'
loop_
_atom_site_label
_atom_site_type_symbol
_atom_site_fract_x
_atom_site_fract_y
_atom_site_fract_z
H1    H     0.32245983030908 0.98141694057689 0.35733358956128 
H2    H     0.42542843963141 0.69247452939610 0.20354030005505 
H3    H     0.42966853007058 0.66957353011538 0.93914600050603 
H4    H     0.31096936038407 0.93183618030020 0.83484080969162 
H5    H     0.17435852015131 0.23319305007798 0.86647410028660 
H6    H     0.44069282013156 0.21085155987587 0.36041359027474 
H7    H     0.04925284998884 0.50980901925914 0.02655495045648 
H8    H     0.98930532041214 0.69734871978608 0.25705735990612 
H9    H     0.01827498052467 0.77157379058604 0.50249419973722 
H10   H     0.48451840028895 0.31579660002559 0.58835518980566 
H11   H     0.13781401000798 0.72066010930476 0.68473503959188 
H12   H     0.32756052966308 0.56284037073238 0.76084713016370 
C1    C     0.32841801958001 0.97975162970443 0.23997441008909 
C2    C     0.27165094958121 0.14066347927981 0.18055174035550 
C3    C     0.21980652998209 0.32238904012892 0.26207237022809 
C4    C     0.38422057994012 0.81474881986661 0.15437462961916 
C5    C     0.25886773967146 0.11408795938838 0.03402501012253 
C6    C     0.25455713044718 0.38817564063117 0.39298079961472 
C7    C     0.13055369015710 0.44515401973925 0.20962537045875 
C8    C     0.38370389976512 0.79954510047156 0.00514576951197 
C9    C     0.31883965959483 0.94527391046209 0.94761008018869 
C10   C     0.17583318014878 0.54644607995505 0.48284505954221 
C11   C     0.18111316013948 0.25408696052666 0.97891636002177 
C12   C     0.36886037023834 0.31437950014192 0.43363151951913 
C13   C     0.11367774965204 0.40823670038325 0.06659310962806 
C14   C     0.05866062985742 0.60733044019858 0.29872397037537 
C15   C     0.07548355060217 0.65044942970458 0.43396843960472 
C16   C     0.39545871012856 0.37703295928238 0.56211784984634 
C17   C     0.20270395995064 0.60485461935519 0.61607610958277 
C18   C     0.30923982964115 0.51924135000419 0.65711501029335 
