data_stdin
_audit_creation_method 'critic2'
_audit_creation_date 2023-8-11
_chemical_formula_sum 'C18 H12'
_cell_formula_units_Z 4
_cell_length_a        15.9908380172
_cell_length_b         3.8461412504
_cell_length_c        18.6174222462
_cell_angle_alpha        90.0006
_cell_angle_beta        90.0041
_cell_angle_gamma        89.9995
_cell_volume          1145.027722
_space_group_crystal_system orthorhombic
_space_group_IT_number 29
_space_group_name_H-M_alt 'Pca2_1'
_space_group_name_Hall 'P 2c -2ac'
loop_
_symmetry_equiv_pos_site_id
_symmetry_equiv_pos_as_xyz
 1 'x,y,z'
 2 '-x,-y,-1/2+z'
 3 '-1/2-x,y,-1/2+z'
 4 '-1/2+x,-y,z'
loop_
_atom_site_label
_atom_site_type_symbol
_atom_site_fract_x
_atom_site_fract_y
_atom_site_fract_z
H1    H     0.70078136994798 0.09156823992085 0.06008649976395 
H2    H     0.76885861979308 0.24881723961544 0.94781130980759 
H3    H     0.69010206995338 0.56919848908853 0.85205332986826 
H4    H     0.53860539983756 0.68047956898795 0.86879569993645 
H5    H     0.41131654999326 0.61205764042818 0.93652258988817 
H6    H     0.70081662988556 0.40653388962181 0.14321559002563 
H7    H     0.33662422995865 0.38390938126520 0.04365086018086 
H8    H     0.33647030998960 0.11762587058508 0.15928464989775 
H9    H     0.41089975000186 0.88875755929900 0.26648248020835 
H10   H     0.76865088979639 0.24851409926654 0.25555200979654 
H11   H     0.53803760997726 0.81922221018475 0.33434013999929 
H12   H     0.68957354980629 0.92895532889275 0.35123498008241 
C1    C     0.66582391008768 0.24110383959444 0.02084036991112 
C2    C     0.58095302012855 0.32517201029083 0.03457518991809 
C3    C     0.53853557001757 0.24983530923703 0.10156788977216 
C4    C     0.70403223986241 0.32408211901426 0.95646436021719 
C5    C     0.53403122999444 0.46885989966479 0.97601610001171 
C6    C     0.58082038025177 0.17408981025723 0.16860205016601 
C7    C     0.44975904029157 0.25024294115043 0.10152294981492 
C8    C     0.65929464006700 0.49610436872330 0.90194677973302 
C9    C     0.57518251973274 0.56091899875830 0.91148386995303 
C10   C     0.53373963981103 0.03082230095905 0.22711092010358 
C11   C     0.44546360993262 0.50056214881457 0.98164109973847 
C12   C     0.66571807022978 0.25733710939751 0.18242463024148 
C13   C     0.40470769001407 0.37853603072157 0.04091669002331 
C14   C     0.40455345996067 0.12235711030891 0.16208282011884 
C15   C     0.44516396005696 0.99994195124072 0.22139641021317 
C16   C     0.70379092978090 0.17393760912944 0.24683615024795 
C17   C     0.57474578005932 0.93836980918699 0.29168566003136 
C18   C     0.65888099977206 0.00235103940937 0.30130832004184 
