data_stdin
_audit_creation_method 'critic2'
_audit_creation_date 2023-8-11
_chemical_formula_sum 'C18 H12'
_cell_formula_units_Z 2
_cell_length_a        14.7736956073
_cell_length_b         3.8758580179
_cell_length_c        10.2770708672
_cell_angle_alpha        89.9953
_cell_angle_beta       103.4960
_cell_angle_gamma        90.0088
_cell_volume           572.222835
_space_group_crystal_system monoclinic
_space_group_IT_number 4
_space_group_name_H-M_alt 'P2_1'
_space_group_name_Hall 'P 2yb'
loop_
_symmetry_equiv_pos_site_id
_symmetry_equiv_pos_as_xyz
 1 'x,y,z'
 2 '-x,-1/2+y,-z'
loop_
_atom_site_label
_atom_site_type_symbol
_atom_site_fract_x
_atom_site_fract_y
_atom_site_fract_z
H1    H     0.91296761982297 0.00037446998694 0.91339501015118 
H2    H     0.03938774962048 0.18660673963862 0.81290023958742 
H3    H     0.00484708981920 0.46493469104798 0.58745928005264 
H4    H     0.84088114980527 0.51911559095877 0.45984425029472 
H5    H     0.67640165990016 0.40234632893718 0.43487083964308 
H6    H     0.85938122989974 0.32411467030928 0.02397190971289 
H7    H     0.55002938022687 0.12906542913762 0.52127252006440 
H8    H     0.49463790023953 0.85076599967156 0.69512559037750 
H9    H     0.51429664981009 0.68166600005395 0.93202808977918 
H10   H     0.86567629987931 0.23755135010533 0.26083601004720 
H11   H     0.60149067980763 0.71626921092222 0.16178927027392 
H12   H     0.73892256009832 0.91931087950116 0.33347544043123 
C1    C     0.89587593026358 0.13263553905527 0.81766473974819 
C2    C     0.80119623006439 0.18192630043119 0.75156123003057 
C3    C     0.72375576018247 0.08974287901807 0.80906800962696 
C4    C     0.96750105985017 0.22996065932113 0.75961228988831 
C5    C     0.78252407999051 0.30735042921236 0.61656506954729 
C6    C     0.73038282995821 0.04490411113728 0.95096161032025 
C7    C     0.63516608006134 0.04618620009194 0.72056915031136 
C8    C     0.94829715988843 0.38222161001862 0.63181315960551 
C9    C     0.85701988033562 0.41489810055967 0.56109361029143 
C10   C     0.65405600968244 0.89069031909204 0.99411059964207 
C11   C     0.68956555970619 0.30264609013504 0.53668442991945 
C12   C     0.80518990003706 0.17263659088277 0.05207942039866 
C13   C     0.61986248996964 0.15639531090882 0.58477633046051 
C14   C     0.56038852967260 0.89635396960475 0.76716660976510 
C15   C     0.57074447983417 0.80580279119180 0.89810747044045 
C16   C     0.80792857973855 0.12907563099697 0.18645968046604 
C17   C     0.65962473001693 0.84139798018559 0.13219135950899 
C18   C     0.73585032975741 0.95454372062700 0.22745683963242 
