data_stdin
_audit_creation_method 'critic2'
_audit_creation_date 2023-8-11
_chemical_formula_sum 'C18 H12'
_cell_formula_units_Z 8
_cell_length_a         9.5349526208
_cell_length_b        20.6599049400
_cell_length_c        12.0214984102
_cell_angle_alpha        89.9996
_cell_angle_beta        89.9999
_cell_angle_gamma        89.9992
_cell_volume          2368.129575
_space_group_crystal_system orthorhombic
_space_group_IT_number 61
_space_group_name_H-M_alt 'Pbca'
_space_group_name_Hall '-P 2ac 2ab'
loop_
_symmetry_equiv_pos_site_id
_symmetry_equiv_pos_as_xyz
 1 'x,y,z'
 2 '-x,-y,-z'
 3 '-1/2-x,-y,-1/2+z'
 4 '-1/2+x,y,-1/2-z'
 5 '-1/2+x,-1/2-y,-z'
 6 '-1/2-x,-1/2+y,z'
 7 '-x,-1/2+y,-1/2-z'
 8 'x,-1/2-y,-1/2+z'
loop_
_atom_site_label
_atom_site_type_symbol
_atom_site_fract_x
_atom_site_fract_y
_atom_site_fract_z
H1    H     0.94835008019320 0.73336754023209 0.86224404011020 
H2    H     0.09323712051796 0.81543068984254 0.77092637004761 
H3    H     0.35243158008328 0.81474939977128 0.79265622969343 
H4    H     0.46446718981852 0.73294365022516 0.91560978022962 
H5    H     0.44616915974921 0.64635264016670 0.05000155008630 
H6    H     0.90071016015858 0.65241755992238 0.78950003018138 
H7    H     0.29997768988592 0.57236079011926 0.16336910013507 
H8    H     0.08037523013945 0.52393539017545 0.20849546028435 
H9    H     0.82795180045425 0.50546890006342 0.17169462978208 
H10   H     0.66265977026413 0.62120753989894 0.74365549966634 
H11   H     0.62390412994512 0.52106214005861 0.05573600963727 
H12   H     0.51532904039110 0.55993878016872 0.87943464966339 
C1    C     0.06149460990518 0.73048602995830 0.87047599021300 
C2    C     0.12202530969692 0.68073483990208 0.93628531034768 
C3    C     0.04212578027041 0.62908024002797 0.98822868040449 
C4    C     0.14293870007098 0.77759927989527 0.82022806960716 
C5    C     0.27022866981909 0.68463632010149 0.95641866996050 
C6    C     0.90163418017342 0.61015961989652 0.95533928964199 
C7    C     0.10679825038923 0.59401210010454 0.07597996959536 
C8    C     0.28955851046803 0.77764067019813 0.83313027988885 
C9    C     0.35169099038996 0.73206587019402 0.90112565993508 
C10   C     0.82257950024680 0.56792178987426 0.02644931984390 
C11   C     0.33356350027353 0.64284968997948 0.03631971023790 
C12   C     0.84026783978239 0.62649357993861 0.85162260984405 
C13   C     0.25302676008272 0.60160240977819 0.09787572959663 
C14   C     0.02712937992987 0.54963803978606 0.14152856959080 
C15   C     0.88820862038428 0.53911340982486 0.12076401008995 
C16   C     0.70503734953283 0.60797724984185 0.82446713024967 
C17   C     0.68272617012532 0.55176331019067 0.99872124039458 
C18   C     0.62326799975854 0.57228590011500 0.90010040971365 
