data_stdin
_audit_creation_method 'critic2'
_audit_creation_date 2023-8-11
_chemical_formula_sum 'C18 H12'
_cell_formula_units_Z 4
_cell_length_a         7.6038721297
_cell_length_b        33.6560682516
_cell_length_c         4.8002540232
_cell_angle_alpha        90.0007
_cell_angle_beta        80.2799
_cell_angle_gamma        90.0065
_cell_volume          1210.828502
_space_group_crystal_system monoclinic
_space_group_IT_number 14
_space_group_name_H-M_alt 'P2_1/c'
_space_group_name_Hall '-P 2ybc'
loop_
_symmetry_equiv_pos_site_id
_symmetry_equiv_pos_as_xyz
 1 'x,y,z'
 2 '-x,-y,-z'
 3 '-x,-1/2+y,-1/2-z'
 4 'x,-1/2-y,-1/2+z'
loop_
_atom_site_label
_atom_site_type_symbol
_atom_site_fract_x
_atom_site_fract_y
_atom_site_fract_z
H1    H     0.98087147999444 0.58811034010981 0.15649963985193 
H2    H     0.05612111986308 0.53764122994811 0.79202018990396 
H3    H     0.81814907947006 0.50717086995417 0.55797662914341 
H4    H     0.50130513993139 0.52404028998978 0.73530740050918 
H5    H     0.27762423011692 0.55629014013380 0.07346472998705 
H6    H     0.98419100047885 0.64284841995917 0.06934376070717 
H7    H     0.19434554938397 0.60272976992738 0.47741079053958 
H8    H     0.26766574024951 0.65111021998102 0.79263219899203 
H9    H     0.48562283937500 0.69526668008670 0.97359658043939 
H10   H     0.18621824943323 0.69056085987592 0.22933951968258 
H11   H     0.77871974964983 0.72413019014688 0.92208330053012 
H12   H     0.08804584035012 0.73094925000179 0.66597273918953 
C1    C     0.87551593060471 0.57637809004883 0.05369510930196 
C2    C     0.69747859039557 0.58957184989786 0.14125690991270 
C3    C     0.64616894009707 0.62140211004246 0.34284313090357 
C4    C     0.91792174005546 0.54717249010427 0.85057447964499 
C5    C     0.56096873962728 0.56783387995886 0.03411709957377 
C6    C     0.76776684037927 0.65104807000635 0.42104311006001 
C7    C     0.46382726975330 0.62392381010520 0.47063591899636 
C8    C     0.78395436045624 0.52926033992038 0.72377908945163 
C9    C     0.60793181927307 0.53901963014226 0.81970150081313 
C10   C     0.70782623038604 0.67707205006136 0.65513744912093 
C11   C     0.37841253988399 0.57383243990157 0.15422386972678 
C12   C     0.94103602032354 0.65825589995021 0.26718847914736 
C13   C     0.33280852003005 0.59945402001614 0.37501890989686 
C14   C     0.40799702978735 0.65101892989344 0.69693010918832 
C15   C     0.52688433060982 0.67561332986206 0.79395658998404 
C16   C     0.05394321965537 0.68621472988210 0.35338986927558 
C17   C     0.82617443060089 0.70526523997996 0.74044302894833 
C18   C     0.99841996959362 0.70929630994281 0.59628510065623 
