data_stdin
_audit_creation_method 'critic2'
_audit_creation_date 2023-8-11
_chemical_formula_sum 'C18 H12'
_cell_formula_units_Z 4
_cell_length_a         9.8873893297
_cell_length_b         6.1997648913
_cell_length_c        19.7169131695
_cell_angle_alpha        89.9983
_cell_angle_beta        76.4123
_cell_angle_gamma        89.9988
_cell_volume          1174.808525
_space_group_crystal_system monoclinic
_space_group_IT_number 14
_space_group_name_H-M_alt 'P2_1/c'
_space_group_name_Hall '-P 2ybc'
loop_
_symmetry_equiv_pos_site_id
_symmetry_equiv_pos_as_xyz
 1 'x,y,z'
 2 '-x,-y,-z'
 3 '-x,-1/2+y,-1/2-z'
 4 'x,-1/2-y,-1/2+z'
loop_
_atom_site_label
_atom_site_type_symbol
_atom_site_fract_x
_atom_site_fract_y
_atom_site_fract_z
H1    H     0.49501948984447 0.18670073923942 0.97823983996098 
H2    H     0.63946100001572 0.46925536973587 0.00857772992783 
H3    H     0.88156667033101 0.52953929930218 0.93759846995861 
H4    H     0.98042684031874 0.27306914942734 0.84177328017330 
H5    H     0.96331485040301 0.94823337991035 0.77677349010965 
H6    H     0.37420360969311 0.23716439939780 0.91889739007304 
H7    H     0.82596437957130 0.63092360919998 0.75432619983141 
H8    H     0.61624765997763 0.43902687987874 0.76840195005711 
H9    H     0.36028486019625 0.41737666933196 0.80760940015999 
H10   H     0.12127678031210 0.21749639972247 0.94748448009136 
H11   H     0.14161070048401 0.57855323926937 0.86078167978133 
H12   H     0.00013864044627 0.88630059067593 0.92155792989517 
C1    C     0.59745504986718 0.21198356013579 0.94456847997497 
C2    C     0.64574883955512 0.07477222023680 0.88635244984294 
C3    C     0.56115643981972 0.91186706016880 0.86297278025595 
C4    C     0.68053951024907 0.37103024066579 0.96269663021895 
C5    C     0.79024601008131 0.09289530961812 0.85158576003454 
C6    C     0.41008811979863 0.91014035942889 0.87982823998296 
C7    C     0.63176616047300 0.74591418952882 0.81870852981804 
C8    C     0.81766678035902 0.40136110974319 0.92380596011041 
C9    C     0.87181136963059 0.26095129062004 0.86991692980977 
C10   C     0.33896225976443 0.72678489971674 0.86022798027220 
C11   C     0.85308620953637 0.93371327967417 0.80183974003217 
C12   C     0.32562937004836 0.08656390965531 0.91006554997841 
C13   C     0.77784163004164 0.76012469948407 0.78922704003151 
C14   C     0.55763175992146 0.56661746988344 0.80028179016815 
C15   C     0.41624528949765 0.55475470982198 0.82170328000216 
C16   C     0.18193906971166 0.07731244014678 0.92500069002537 
C17   C     0.19158508005866 0.72041238958841 0.87662238997530 
C18   C     0.11332063036479 0.89094275022848 0.90969033011117 
