data_stdin
_audit_creation_method 'critic2'
_audit_creation_date 2023-8-11
_chemical_formula_sum 'C18 H12'
_cell_formula_units_Z 4
_cell_length_a         7.4266680600
_cell_length_b        11.5198210500
_cell_length_c        14.3746958600
_cell_angle_alpha        90.0000
_cell_angle_beta        89.9999
_cell_angle_gamma        90.0000
_cell_volume          1229.811106
_space_group_crystal_system orthorhombic
_space_group_IT_number 29
_space_group_name_H-M_alt 'Pca2_1'
_space_group_name_Hall 'P 2c -2ac'
loop_
_symmetry_equiv_pos_site_id
_symmetry_equiv_pos_as_xyz
 1 'x,y,z'
 2 '-x,-y,-1/2+z'
 3 '-1/2-x,y,-1/2+z'
 4 '-1/2+x,-y,z'
loop_
_atom_site_label
_atom_site_type_symbol
_atom_site_fract_x
_atom_site_fract_y
_atom_site_fract_z
H1    H     0.10616625065697 0.32338117963751 0.01557023996538 
H2    H     0.15389184988493 0.17859171997357 0.89330864009630 
H3    H     0.02059935970566 0.98032096982071 0.90757213007726 
H4    H     0.85837315012096 0.92677840963248 0.05236876986590 
H5    H     0.75191297980304 0.97184834985015 0.20641592029020 
H6    H     0.90521004944060 0.43098050977103 0.01340512008293 
H7    H     0.73817334997456 0.10868556972960 0.33985899983035 
H8    H     0.79341972057414 0.29212695960942 0.40835809006168 
H9    H     0.86394413013518 0.50203256999478 0.39478673969698 
H10   H     0.93897046986074 0.64057490012623 0.00191900004423 
H11   H     0.92136031961840 0.66962586039981 0.29989926017758 
H12   H     0.95777335006338 0.76318168006449 0.14552419996770 
C1    C     0.04121635934019 0.23943619995481 0.02168352984711 
C2    C     0.93791793987191 0.21450885974909 0.10247277004313 
C3    C     0.90040080021247 0.29847015038251 0.17521945998118 
C4    C     0.07082867016194 0.15697863961871 0.95337930000808 
C5    C     0.87961111947512 0.09659347999066 0.11422112968722 
C6    C     0.91316799048576 0.42338510015650 0.16428054013972 
C7    C     0.84404440057443 0.25487111962384 0.26294051978531 
C8    C     0.99909663983774 0.04430685001335 0.96214593028330 
C9    C     0.90828944976170 0.01472347989078 0.04238048002905 
C10   C     0.90477397034534 0.49574853993623 0.24540043967145 
C11   C     0.80008644978081 0.06083606019469 0.19979234996493 
C12   C     0.91948495014860 0.48080741980445 0.07702803998794 
C13   C     0.79167911999521 0.13630793962090 0.27290257017231 
C14   C     0.83294536020207 0.32976737964413 0.34183075997466 
C15   C     0.86970413979543 0.44546908980214 0.33409248980834 
C16   C     0.93436525025942 0.60021674024197 0.07039027026615 
C17   C     0.92286518040364 0.61746174975669 0.23676108987042 
C18   C     0.94127104053585 0.66951584972855 0.15090318988313 
