data_stdin
_audit_creation_method 'critic2'
_audit_creation_date 2023-8-11
_chemical_formula_sum 'C18 H12'
_cell_formula_units_Z 8
_cell_length_a        13.6184674140
_cell_length_b        11.4512199214
_cell_length_c        15.3518565644
_cell_angle_alpha        90.0004
_cell_angle_beta        82.4494
_cell_angle_gamma        89.9979
_cell_volume          2373.333782
_space_group_crystal_system monoclinic
_space_group_IT_number 15
_space_group_name_H-M_alt 'C2/c'
_space_group_name_Hall '-C 2yc'
loop_
_symmetry_equiv_pos_site_id
_symmetry_equiv_pos_as_xyz
 1 'x,y,z'
 2 '-1/2-x,-1/2-y,-z'
 3 '-1/2-x,-1/2+y,-1/2-z'
 4 'x,-y,-1/2+z'
 5 '-1/2+x,-1/2+y,z'
 6 '-x,-y,-z'
 7 '-x,y,-1/2-z'
 8 '-1/2+x,-1/2-y,-1/2+z'
loop_
_atom_site_label
_atom_site_type_symbol
_atom_site_fract_x
_atom_site_fract_y
_atom_site_fract_z
H1    H     0.09729441805515 0.65187817105504 0.32990102500564 
H2    H     0.09025819393192 0.83350167860491 0.24824018701768 
H3    H     0.10350716607036 0.02619234493339 0.32214212312598 
H4    H     0.11381088897189 0.03084389171591 0.48273248200526 
H5    H     0.10792870910326 0.93507749117936 0.62137553802896 
H6    H     0.21042688654355 0.56001172214122 0.33742493986203 
H7    H     0.09287007571454 0.75305074581929 0.71066941834938 
H8    H     0.08536434894342 0.54828273496718 0.72351854715741 
H9    H     0.09094708478437 0.34947508290839 0.65861174978800 
H10   H     0.22926195403677 0.36223220146105 0.27991725239227 
H11   H     0.11875477002306 0.22342554887869 0.53402264547274 
H12   H     0.17843289032404 0.19043279466150 0.37565952428035 
C1    C     0.10699051412413 0.73360396163816 0.36330389609908 
C2    C     0.11881763025672 0.73244631376934 0.45380359385349 
C3    C     0.12446117592274 0.62675152375119 0.50515007607015 
C4    C     0.10101086986737 0.83666093334392 0.31725080473862 
C5    C     0.11627018419183 0.84373983403709 0.49708039071466 
C6    C     0.14288507734884 0.51077992176120 0.46831647701382 
C7    C     0.10883863194710 0.63736321562926 0.59815890479826 
C8    C     0.10716618488468 0.94539045342843 0.35901861983768 
C9    C     0.11358039105904 0.94804130055589 0.44793478910783 
C10   C     0.12502537815515 0.41092914159047 0.52470468237188 
C11   C     0.11024725166872 0.84944230467046 0.59030309495609 
C12   C     0.18394207959042 0.48809141421634 0.38012786653497 
C13   C     0.10274179209074 0.74951215977228 0.63908655570508 
C14   C     0.09827556350464 0.53602437457712 0.65262988841107 
C15   C     0.10209831122751 0.42672435499770 0.61711318594804 
C16   C     0.19638908928229 0.37550207975331 0.34769841900415 
C17   C     0.13524729330884 0.29685318726796 0.48940403318831 
C18   C     0.16867013406639 0.27865107178256 0.40173795791008 
