data_stdin
_audit_creation_method 'critic2'
_audit_creation_date 2023-8-11
_chemical_formula_sum 'C18 H12'
_cell_formula_units_Z 4
_cell_length_a        14.3783587600
_cell_length_b        11.0007350301
_cell_length_c         7.5088572800
_cell_angle_alpha        90.0000
_cell_angle_beta        90.0000
_cell_angle_gamma        90.0003
_cell_volume          1187.694840
_space_group_crystal_system orthorhombic
_space_group_IT_number 29
_space_group_name_H-M_alt 'Pca2_1'
_space_group_name_Hall 'P 2c -2ac'
loop_
_symmetry_equiv_pos_site_id
_symmetry_equiv_pos_as_xyz
 1 'x,y,z'
 2 '-x,-y,-1/2+z'
 3 '-1/2-x,y,-1/2+z'
 4 '-1/2+x,-y,z'
loop_
_atom_site_label
_atom_site_type_symbol
_atom_site_fract_x
_atom_site_fract_y
_atom_site_fract_z
H1    H     0.96777548988131 0.94460277984148 0.02594294065941 
H2    H     0.94633151991939 0.16387322030072 0.01633759967843 
H3    H     0.06196204022272 0.29712580992508 0.86043805043225 
H4    H     0.20666854016300 0.20480494993548 0.73950570017577 
H5    H     0.30762302994776 0.03140125961875 0.69475904052921 
H6    H     0.92215226017222 0.82459175043708 0.83866085008860 
H7    H     0.34244231023851 0.81443813019062 0.74649108034332 
H8    H     0.30161375989324 0.62034388042432 0.86422310041337 
H9    H     0.18882723988503 0.48096098028904 0.01193744042945 
H10   H     0.80850052986079 0.67289369982962 0.93702364938492 
H11   H     0.02992246025623 0.43650437019462 0.10676304951537 
H12   H     0.86164960023237 0.48336883036753 0.09331574026862 
C1    C     0.01852826986118 0.99922597027455 0.95487644030213 
C2    C     0.09722425031773 0.94276552965291 0.87636548999100 
C3    C     0.11355586015755 0.81286295991859 0.88024271032977 
C4    C     0.00693438002075 0.12413366044764 0.95182469998878 
C5    C     0.16824136023807 0.02098427011963 0.80591263986114 
C6    C     0.04336668993312 0.72323038971442 0.92474704940745 
C7    C     0.20516485034707 0.77069427009266 0.84698127035968 
C8    C     0.07319838032930 0.19939774043908 0.86874693964150 
C9    C     0.15310994973043 0.14800637026913 0.79966406015881 
C10   C     0.07271756992380 0.60551347027933 0.98488107955162 
C11   C     0.25522119983966 0.97125252999986 0.75142375056223 
C12   C     0.94650296969078 0.74209047005644 0.90301777019382 
C13   C     0.27410153998773 0.85108911027681 0.77798181038669 
C14   C     0.23027087996752 0.64857895002466 0.88961450995685 
C15   C     0.16810434992501 0.57152363045345 0.96833930977071 
C16   C     0.88240207001193 0.65567969984954 0.95702440053154 
C17   C     0.00594429026080 0.52219518985187 0.05014542005700 
C18   C     0.91198342990415 0.54757247029818 0.04002555949836 
