data_stdin
_audit_creation_method 'critic2'
_audit_creation_date 2023-8-11
_chemical_formula_sum 'C18 H12'
_cell_formula_units_Z 4
_cell_length_a         8.8137550601
_cell_length_b         8.1874648806
_cell_length_c        16.9110379701
_cell_angle_alpha        89.9992
_cell_angle_beta        90.0004
_cell_angle_gamma        90.0000
_cell_volume          1220.339565
_space_group_crystal_system orthorhombic
_space_group_IT_number 33
_space_group_name_H-M_alt 'Pna2_1'
_space_group_name_Hall 'P 2c -2n'
loop_
_symmetry_equiv_pos_site_id
_symmetry_equiv_pos_as_xyz
 1 'x,y,z'
 2 '-x,-y,-1/2+z'
 3 '-1/2-x,-1/2+y,-1/2+z'
 4 '-1/2+x,-1/2-y,z'
loop_
_atom_site_label
_atom_site_type_symbol
_atom_site_fract_x
_atom_site_fract_y
_atom_site_fract_z
H1    H     0.69747579998091 0.21580038948843 0.97461023985246 
H2    H     0.55299199048310 0.34310651006859 0.86834050009103 
H3    H     0.35061925989363 0.18515092948640 0.79640893987155 
H4    H     0.31671377006010 0.89198462952784 0.82596384998770 
H5    H     0.39395014051711 0.64456008047306 0.89474122990113 
H6    H     0.61963248971560 0.21766192023576 0.08801712992729 
H7    H     0.56708833984004 0.50485385031316 0.98829165004104 
H8    H     0.76667725027307 0.51053601941348 0.08308331992999 
H9    H     0.93487177023969 0.65942929984399 0.17583533997608 
H10   H     0.76532045967486 0.35570079981895 0.19153543995357 
H11   H     0.01330355045923 0.91372058057018 0.23717434970922 
H12   H     0.97255945000456 0.21052140968721 0.26259606991420 
C1    C     0.60817046025303 0.14591255053833 0.94605571993044 
C2    C     0.58322233991211 0.98116126029325 0.96870470029276 
C3    C     0.66221963954427 0.90154183990093 0.03320793975471 
C4    C     0.52775934014138 0.21746164993503 0.88484330998179 
C5    C     0.48232975013201 0.88670286977846 0.92025220976482 
C6    C     0.73992144964537 0.98692625951908 0.09638085977956 
C7    C     0.66436644986007 0.72831114985046 0.03428341027013 
C8    C     0.41722703953701 0.12798860010936 0.84310455012535 
C9    C     0.39715723983640 0.96433643052914 0.86006926976002 
C10   C     0.84366025038515 0.89809038013735 0.14570093025077 
C11   C     0.47392950955584 0.71404917952600 0.93058302988218 
C12   C     0.71162806998216 0.15235825955153 0.11678262998485 
C13   C     0.56795093053928 0.63734456948145 0.98281928005019 
C14   C     0.76263871022233 0.64312834020132 0.08702089980463 
C15   C     0.85473687009797 0.72496854050768 0.13840754018877 
C16   C     0.79239075018091 0.22996466957862 0.17607689011928 
C17   C     0.92981855049489 0.98246978988110 0.20335068011163 
C18   C     0.90699810017853 0.14668775941577 0.21771917996761 
