data_stdin
_audit_creation_method 'critic2'
_audit_creation_date 2023-8-11
_chemical_formula_sum 'C18 H12'
_cell_formula_units_Z 16
_cell_length_a        38.1910249311
_cell_length_b        31.8204973448
_cell_length_c         3.8182842623
_cell_angle_alpha        89.9953
_cell_angle_beta        90.0278
_cell_angle_gamma        90.0006
_cell_volume          4640.197672
_space_group_crystal_system triclinic
_space_group_IT_number 1
_space_group_name_H-M_alt 'P1'
_space_group_name_Hall 'P 1'
loop_
_symmetry_equiv_pos_site_id
_symmetry_equiv_pos_as_xyz
 1 'x,y,z'
 2 '-1/2+x,y,-1/2+z'
 3 'x,-1/2+y,-1/2+z'
 4 '-1/2+x,-1/2+y,z'
loop_
_atom_site_label
_atom_site_type_symbol
_atom_site_fract_x
_atom_site_fract_y
_atom_site_fract_z
H1    H     0.63967818451187 0.47805994499375 0.50280066522153 
H2    H     0.36036166477467 0.52192747705511 0.50308290690025 
H3    H     0.61034430973873 0.72805676725480 0.75281200942413 
H4    H     0.88966040250725 0.77192351813088 0.75315291412563 
H5    H     0.69335257967648 0.51523781339669 0.35217262587990 
H6    H     0.30669167582476 0.48473733920596 0.35194648289112 
H7    H     0.55666503935800 0.76524984650431 0.60211714059247 
H8    H     0.94332178298741 0.73473768320875 0.60214296561207 
H9    H     0.74296251351043 0.47723929306637 0.06131353145522 
H10   H     0.25706170593809 0.52273980586328 0.06096997599744 
H11   H     0.50702256724463 0.72725975592692 0.31122638815086 
H12   H     0.99292143549767 0.77273474894230 0.31108573193241 
H13   H     0.73864173273214 0.40022063190721 0.97139776891547 
H14   H     0.26135178018127 0.59976936674098 0.97155665164603 
H15   H     0.51132192392348 0.65024157102120 0.22131536188760 
H16   H     0.98861820892067 0.84976106564065 0.22150616994177 
H17   H     0.70802027479691 0.33432712766374 0.04937780551887 
H18   H     0.29194992453241 0.66567600069814 0.05023578553721 
H19   H     0.54194539706082 0.58433507094818 0.29921747837845 
H20   H     0.95802812441703 0.91566256636168 0.30015539456235 
H21   H     0.60019732030911 0.47236768759886 0.16378630861523 
H22   H     0.39981101505630 0.52767431561529 0.16415003677931 
H23   H     0.64979726625602 0.72234919463455 0.41380184027532 
H24   H     0.85017949714968 0.77764786307479 0.41426157937057 
H25   H     0.65804336277954 0.29467670300932 0.30195757849135 
H26   H     0.34192456307793 0.70532141997531 0.30345146415062 
H27   H     0.59193379923438 0.54467811778151 0.55193797481061 
H28   H     0.90806997303184 0.95531350171036 0.55314917622669 
H29   H     0.60178490713857 0.29253048236630 0.58009562923452 
H30   H     0.39819572661808 0.70746212868160 0.58176743847568 
H31   H     0.64819947320445 0.54252205713498 0.83035262631725 
H32   H     0.85180915103859 0.95745990141242 0.83124196314729 
H33   H     0.54682177991537 0.32729618236047 0.76612764920614 
H34   H     0.45318962434706 0.67270940063164 0.76750739385797 
H35   H     0.70318213175364 0.57727367386322 0.01654262510834 
H36   H     0.79683356357869 0.92270365992115 0.01697905118138 
H37   H     0.54290743172349 0.50308754500707 0.28120745191043 
H38   H     0.45711318165380 0.49696248498011 0.28134266924057 
H39   H     0.70709587607824 0.75306345220720 0.53136982537315 
H40   H     0.79288692594409 0.74693885608288 0.53151137699266 
H41   H     0.50978033589576 0.38888851803857 0.78149182400943 
H42   H     0.49026835574470 0.61113477202715 0.78215050314413 
H43   H     0.74024055963625 0.63886334560561 0.03185605431362 
H44   H     0.75976837014959 0.86113206237134 0.03188172887074 
H45   H     0.49793510774889 0.46287410858885 0.62393644435148 
H46   H     0.50211949490769 0.53717125715405 0.62418967800183 
H47   H     0.75208573043826 0.71284513682956 0.87431313740731 
H48   H     0.74790848958670 0.78715706579067 0.87413295672491 
C1    C     0.66023379041801 0.46115158772109 0.36638033617400 
C2    C     0.33979376242589 0.53884011623002 0.36666478189905 
C3    C     0.58977347107074 0.71115198632308 0.61638378364024 
C4    C     0.91021465298940 0.78883250168871 0.61669767190792 
C5    C     0.65590468137444 0.41767474639644 0.29756064688638 
C6    C     0.34410513389702 0.58232582736100 0.29812748691043 
C7    C     0.59408856242674 0.66767528906851 0.54756806823024 
C8    C     0.90589359822316 0.83231702577466 0.54806795328089 
C9    C     0.62428638569801 0.39446968951220 0.37881870312482 
C10   C     0.37571843234383 0.60553725246188 0.37964870490166 
C11   C     0.62570894708949 0.64446305381982 0.62888728831813 
C12   C     0.87428484344298 0.85552767830038 0.62950435161691 
C13   C     0.69093173178803 0.48206285791929 0.28598466105862 
C14   C     0.30910182764302 0.51791944080212 0.28596488565448 
C15   C     0.55907444011067 0.73207419157557 0.53594212892481 
C16   C     0.94090304084135 0.76791721204815 0.53607432898229 
C17   C     0.68582477378904 0.39538443948484 0.16764264645024 
C18   C     0.31417159288990 0.60461533650074 0.16818015127508 
C19   C     0.56415484757832 0.64539024114386 0.41758240915098 
C20   C     0.93581517131645 0.85460475367738 0.41813033018477 
C21   C     0.59035683986843 0.41363329783900 0.43449199697755 
C22   C     0.40966126572168 0.58638525652856 0.43519990990106 
C23   C     0.65964583051424 0.66361784744268 0.68461547595883 
C24   C     0.84034848849620 0.83637241625699 0.68508662123990 
C25   C     0.62675728807125 0.35009263092115 0.40577301051664 
C26   C     0.37323406430016 0.64990854579694 0.40694564801811 
C27   C     0.62323181680463 0.60008762488577 0.65586348891937 
C28   C     0.87676785677491 0.89990119900158 0.65667920915821 
C29   C     0.71903754806936 0.46053500461469 0.12922997753814 
C30   C     0.28098241760389 0.53944932706746 0.12914801132708 
C31   C     0.53095104121064 0.71055110347918 0.37916313152160 
C32   C     0.96900632448421 0.78944416626567 0.37922561591009 
C33   C     0.71649603852415 0.41775100883004 0.07584583659108 
C34   C     0.28350731884110 0.58223941936998 0.07604080205078 
C35   C     0.53347986810437 0.66776803495610 0.32576726915705 
C36   C     0.96647330872176 0.83223384922461 0.32604165258562 
C37   C     0.56276869615874 0.38901393701143 0.58562740049208 
C38   C     0.43725537845823 0.61100456578459 0.58648764656704 
C39   C     0.68723951242446 0.63899323173009 0.83587467743485 
C40   C     0.81276428047123 0.86099412620671 0.83624184066890 
C41   C     0.68523139926907 0.35061015230398 0.15403066610640 
C42   C     0.31474775285024 0.64939030504017 0.15490187164696 
C43   C     0.56474141063283 0.60061851964762 0.40393890773868 
C44   C     0.93523648797598 0.89938174861591 0.40479012597668 
C45   C     0.58160186419648 0.45476318244961 0.32086248915050 
C46   C     0.41841607764810 0.54527408387830 0.32131107582762 
C47   C     0.66839953713712 0.70474181959591 0.57095569141252 
C48   C     0.83158652746558 0.79525277505836 0.57134043188724 
C49   C     0.65750784333670 0.32888624728594 0.28869462407103 
C50   C     0.34246643195655 0.67111402048673 0.28990220209749 
C51   C     0.59247082724281 0.57888730984488 0.53868115337404 
C52   C     0.90752610753704 0.92110543902948 0.53967270041133 
C53   C     0.59840700669950 0.32631179471283 0.54703744490103 
C54   C     0.40158450495713 0.67368722301981 0.54843482259878 
C55   C     0.65158597405728 0.57630109226906 0.79726230557210 
C56   C     0.84842496647941 0.92368213825624 0.79801611076755 
C57   C     0.56802111499769 0.34532131900173 0.64827794103411 
C58   C     0.43199023618047 0.65468110364785 0.64950750201933 
C59   C     0.68198221959338 0.59530600066540 0.89858098104234 
C60   C     0.81802924883639 0.90467758548019 0.89909558529742 
C61   C     0.54894376197498 0.47194779726794 0.38301737244646 
C62   C     0.45108382319099 0.52809056237948 0.38334236355812 
C63   C     0.70106196445670 0.72192707264551 0.63320469414740 
C64   C     0.79892341121548 0.77807352353491 0.63339408820187 
C65   C     0.52999977869220 0.40780728513545 0.65684560786047 
C66   C     0.47004084844749 0.59221499817635 0.65748451743917 
C67   C     0.72001566163533 0.65778597483152 0.90715382811054 
C68   C     0.77998598900474 0.84220881978632 0.90728406717315 
C69   C     0.52325532026246 0.44891852598439 0.56452722808708 
C70   C     0.47678581459621 0.55111755365772 0.56491707124824 
C71   C     0.72675933456146 0.69889399977431 0.81482110814518 
C72   C     0.77323526023330 0.80110520104355 0.81485137339294 
