data_stdin
_audit_creation_method 'critic2'
_audit_creation_date 2023-8-11
_chemical_formula_sum 'C18 H12'
_cell_formula_units_Z 4
_cell_length_a         8.8120458490
_cell_length_b        18.0052917802
_cell_length_c         7.9291111918
_cell_angle_alpha        89.9994
_cell_angle_beta        69.7767
_cell_angle_gamma        89.9997
_cell_volume          1180.504183
_space_group_crystal_system monoclinic
_space_group_IT_number 14
_space_group_name_H-M_alt 'P2_1/c'
_space_group_name_Hall '-P 2ybc'
loop_
_symmetry_equiv_pos_site_id
_symmetry_equiv_pos_as_xyz
 1 'x,y,z'
 2 '-x,-y,-z'
 3 '-x,-1/2+y,-1/2-z'
 4 'x,-1/2-y,-1/2+z'
loop_
_atom_site_label
_atom_site_type_symbol
_atom_site_fract_x
_atom_site_fract_y
_atom_site_fract_z
H1    H     0.34165289974274 0.02712991007489 0.38298287960394 
H2    H     0.45646069959378 0.12929438008066 0.17541551975710 
H3    H     0.73078908976433 0.11939830016623 0.94587174935673 
H4    H     0.89547412023864 0.00549021974411 0.93634422953019 
H5    H     0.93490696005519 0.88887623024772 0.06506037023803 
H6    H     0.21064239015731 0.95096500988249 0.33041489980032 
H7    H     0.83458163047274 0.79152870017793 0.29701558980973 
H8    H     0.62548101976419 0.73552087012670 0.54101594032768 
H9    H     0.34073450004221 0.72782546997512 0.74399141041297 
H10   H     0.92739962042070 0.92820205002544 0.50336079027185 
H11   H     0.06375424004997 0.76646131001278 0.82525736968949 
H12   H     0.84854901014015 0.84044947026631 0.76351195933252 
C1    C     0.45864834008672 0.01955045025363 0.27878413035378 
C2    C     0.54402499004162 0.95212221023010 0.27070352036581 
C3    C     0.47847670954848 0.88828029986437 0.38428995970155 
C4    C     0.52444687962369 0.07799426021549 0.16376678970003 
C5    C     0.70853512980196 0.95002174022403 0.14985013021289 
C6    C     0.30762581977646 0.87618930006712 0.48244691021957 
C7    C     0.58882374982483 0.83317369981658 0.39909048036303 
C8    C     0.68106580979361 0.07285374992235 0.03565315052466 
C9    C     0.77197874051808 0.00996114982565 0.03070857978943 
C10   C     0.26028515987090 0.81899689977450 0.61682497015261 
C11   C     0.81032781032806 0.88954423021757 0.15753490989129 
C12   C     0.18128421046877 0.91333762972285 0.44393211959396 
C13   C     0.75414977948419 0.83526628006638 0.28416030998987 
C14   C     0.53621071052024 0.77507609981845 0.52870749963520 
C15   C     0.37885866051440 0.77029970972868 0.64014155980242 
C16   C     0.02001188964230 0.89981271990845 0.54095728946596 
C17   C     0.09474029981248 0.80847022025591 0.71953823939059 
C18   C     0.97568773033512 0.84884548025047 0.68439734992302 
