data_stdin
_audit_creation_method 'critic2'
_audit_creation_date 2023-8-11
_chemical_formula_sum 'C18 H12'
_cell_formula_units_Z 8
_cell_length_a        26.7746433545
_cell_length_b         8.4645764015
_cell_length_c        10.8172920086
_cell_angle_alpha        90.0002
_cell_angle_beta        89.9988
_cell_angle_gamma        90.0008
_cell_volume          2451.587945
_space_group_crystal_system orthorhombic
_space_group_IT_number 60
_space_group_name_H-M_alt 'Pbcn'
_space_group_name_Hall '-P 2n 2ab'
loop_
_symmetry_equiv_pos_site_id
_symmetry_equiv_pos_as_xyz
 1 'x,y,z'
 2 '-x,-y,-z'
 3 '-1/2-x,-1/2-y,-1/2+z'
 4 '-1/2+x,-1/2+y,-1/2-z'
 5 '-1/2+x,-1/2-y,-z'
 6 '-1/2-x,-1/2+y,z'
 7 '-x,y,-1/2-z'
 8 'x,-y,-1/2+z'
loop_
_atom_site_label
_atom_site_type_symbol
_atom_site_fract_x
_atom_site_fract_y
_atom_site_fract_z
H1    H     0.28582172011948 0.80660234943834 0.97017205967227 
H2    H     0.19891148994658 0.78186379010214 0.03077807003004 
H3    H     0.17520658987948 0.63215241980063 0.22156665023805 
H4    H     0.24171941007542 0.49650449008348 0.34227809025541 
H5    H     0.32749161007450 0.43041335040163 0.37792648002336 
H6    H     0.32661402002593 0.98126540970444 0.01207050981111 
H7    H     0.41518519005231 0.42699518945388 0.30621161034528 
H8    H     0.47895190985161 0.50927579997731 0.16768334020158 
H9    H     0.51147909995397 0.68503605952119 0.00414403990728 
H10   H     0.36241773992366 0.16472516941000 0.86257836026059 
H11   H     0.50014279983711 0.90385243963005 0.86562213996119 
H12   H     0.44850857999537 0.12372729032077 0.78059795981326 
C1    C     0.27738920015784 0.74793230051540 0.05666625000968 
C2    C     0.31667281987869 0.68561668955046 0.12996200980492 
C3    C     0.36941364002000 0.70434602046385 0.10153167996822 
C4    C     0.22775434987355 0.73040061044029 0.08929640027089 
C5    C     0.30230445988519 0.58906604944711 0.23318519017526 
C6    C     0.38986090005572 0.82141640981520 0.01714058998756 
C7    C     0.40350789001958 0.60010186971471 0.16083123971915 
C8    C     0.21431591987354 0.64545834991542 0.19610671020505 
C9    C     0.25124414010096 0.57294572004240 0.26467015965522 
C10   C     0.44115969986414 0.80906782037492 0.97923899034453 
C11   C     0.33912514016582 0.50155678949783 0.29924706955761 
C12   C     0.36334819018552 0.95623102024368 0.97491201956018 
C13   C     0.38758791988493 0.50117293946108 0.26022018963313 
C14   C     0.45453545016554 0.59482320950152 0.12321915034490 
C15   C     0.47255917007605 0.69182966036897 0.03292581031072 
C16   C     0.38399091010572 0.06233698950793 0.89203470983520 
C17   C     0.46116946010364 0.91745139028595 0.89266349007669 
C18   C     0.43285864017044 0.04061756996812 0.84695402959001 
