data_stdin
_audit_creation_method 'critic2'
_audit_creation_date 2023-8-11
_chemical_formula_sum 'C18 H12'
_cell_formula_units_Z 8
_cell_length_a        25.1695040665
_cell_length_b         7.6510442417
_cell_length_c        13.1066184343
_cell_angle_alpha        89.9992
_cell_angle_beta       107.2130
_cell_angle_gamma        89.9993
_cell_volume          2410.935164
_space_group_crystal_system monoclinic
_space_group_IT_number 15
_space_group_name_H-M_alt 'C2/c'
_space_group_name_Hall '-C 2yc'
loop_
_symmetry_equiv_pos_site_id
_symmetry_equiv_pos_as_xyz
 1 'x,y,z'
 2 '-x,-y,-z'
 3 '-x,y,-1/2-z'
 4 'x,-y,-1/2+z'
 5 '-1/2+x,-1/2+y,z'
 6 '-1/2-x,-1/2-y,-z'
 7 '-1/2-x,-1/2+y,-1/2-z'
 8 '-1/2+x,-1/2-y,-1/2+z'
loop_
_atom_site_label
_atom_site_type_symbol
_atom_site_fract_x
_atom_site_fract_y
_atom_site_fract_z
H1    H     0.40724583002580 0.08995781958690 0.22241638961060 
H2    H     0.45130457008096 0.12043098985962 0.08124090012057 
H3    H     0.48074902005007 0.85609731024035 0.99944286986934 
H4    H     0.46958969024826 0.56255108961018 0.07113565037554 
H5    H     0.44142158006086 0.37778932006231 0.19419978003317 
H6    H     0.32873902994337 0.08191767942548 0.18881554029945 
H7    H     0.40243429017681 0.34304497041331 0.34684120001309 
H8    H     0.35933034001009 0.45777298039105 0.47036162997060 
H9    H     0.31447385996511 0.69863972950740 0.53976442963129 
H10   H     0.27022366981328 0.29610517028416 0.24130951985929 
H11   H     0.27064129999988 0.98274665963249 0.51362420032074 
H12   H     0.24081882992336 0.25158695015192 0.40476952007475 
C1    C     0.41722961999300 0.97268110059647 0.18543003993309 
C2    C     0.40484913992942 0.80646601045153 0.22060579027642 
C3    C     0.37436359988501 0.78054462945245 0.29767745028003 
C4    C     0.44366099991618 0.99017214042904 0.10737600027255 
C5    C     0.42691890980856 0.65715476013163 0.18070481984804 
C6    C     0.33946319995252 0.91182645966299 0.32587565986390 
C7    C     0.37744496019363 0.61361485990165 0.34662389031003 
C8    C     0.46070262990077 0.84183247993668 0.06196252993343 
C9    C     0.45368165019495 0.67843941019101 0.10057947017449 
C10   C     0.31934892011820 0.88227049051018 0.41615865030009 
C11   C     0.42408751994784 0.48894618942255 0.22545257978871 
C12   C     0.31925280020768 0.06275092987911 0.26349440024794 
C13   C     0.40249887018584 0.46966750039346 0.30886907010691 
C14   C     0.35507158004438 0.58658085050446 0.43358700004694 
C15   C     0.32970769979200 0.71918410024080 0.47103636982271 
C16   C     0.28503047999142 0.18280568023864 0.29176744961519 
C17   C     0.28521995010515 0.00879971003899 0.44465483981100 
C18   C     0.26842526010460 0.15765548038501 0.38414996020871 
