data_stdin
_audit_creation_method 'critic2'
_audit_creation_date 2023-8-11
_chemical_formula_sum 'C18 H12'
_cell_formula_units_Z 4
_cell_length_a        14.9044761739
_cell_length_b         3.9410681401
_cell_length_c        20.7152601294
_cell_angle_alpha        89.9975
_cell_angle_beta        68.9018
_cell_angle_gamma        90.0008
_cell_volume          1135.236125
_space_group_crystal_system monoclinic
_space_group_IT_number 14
_space_group_name_H-M_alt 'P2_1/c'
_space_group_name_Hall '-P 2ybc'
loop_
_symmetry_equiv_pos_site_id
_symmetry_equiv_pos_as_xyz
 1 'x,y,z'
 2 '-x,-y,-z'
 3 '-x,-1/2+y,-1/2-z'
 4 'x,-1/2-y,-1/2+z'
loop_
_atom_site_label
_atom_site_type_symbol
_atom_site_fract_x
_atom_site_fract_y
_atom_site_fract_z
H1    H     0.92552795010660 0.52317258029945 0.25579710982720 
H2    H     0.06279968990285 0.72809304007985 0.15864787002134 
H3    H     0.04872557002027 0.84126385094632 0.04443386983444 
H4    H     0.89714712003053 0.69017370915935 0.02725727024929 
H5    H     0.74046585022945 0.43617501110781 0.06761310018048 
H6    H     0.84251367978137 0.81322012065466 0.32020664003935 
H7    H     0.60313203990631 0.17952862986148 0.16213717014752 
H8    H     0.51938690995631 0.06132066955999 0.27967393979478 
H9    H     0.50166852990244 0.07983969892217 0.40316707993944 
H10   H     0.81707840008607 0.85475114921146 0.44203903985377 
H11   H     0.55798420971562 0.26511834005365 0.49211187002702 
H12   H     0.67554512005712 0.57096385961547 0.53088814010002 
C1    C     0.91534743986107 0.57886472102734 0.20768649011564 
C2    C     0.82440329980955 0.52449321081595 0.20192376977635 
C3    C     0.73703438986780 0.43366871944673 0.25903261007466 
C4    C     0.99417088028026 0.68864950092711 0.15229903000985 
C5    C     0.82159928964455 0.54674183045257 0.13350036019168 
C6    C     0.72201964997417 0.47917602954294 0.33178072022726 
C7    C     0.65968032008107 0.29793668053700 0.24236096008853 
C8    C     0.98713847008013 0.74689586894486 0.08737134002263 
C9    C     0.90240177008681 0.66794006910089 0.07817565989550 
C10   C     0.63692342012037 0.34285388052501 0.38341815025070 
C11   C     0.73939458983026 0.42895927974757 0.12046466979969 
C12   C     0.78370513997182 0.67102388112622 0.35641828021388 
C13   C     0.66348578988841 0.29134070001832 0.17251405006216 
C14   C     0.57550222003712 0.17115726981572 0.29519411976857 
C15   C     0.56539873974927 0.18351792988968 0.36324700017545 
C16   C     0.76804786987782 0.70047421035555 0.42614634020946 
C17   C     0.62263238004384 0.37588587994594 0.45445612008345 
C18   C     0.68770782997415 0.54644428939531 0.47601176994176 
