data_stdin
_audit_creation_method 'critic2'
_audit_creation_date 2023-8-11
_chemical_formula_sum 'C18 H12'
_cell_formula_units_Z 4
_cell_length_a        10.9453361877
_cell_length_b         7.0013465568
_cell_length_c        17.4056675478
_cell_angle_alpha        90.0012
_cell_angle_beta        64.3245
_cell_angle_gamma        90.0010
_cell_volume          1202.133426
_space_group_crystal_system monoclinic
_space_group_IT_number 14
_space_group_name_H-M_alt 'P2_1/c'
_space_group_name_Hall '-P 2ybc'
loop_
_symmetry_equiv_pos_site_id
_symmetry_equiv_pos_as_xyz
 1 'x,y,z'
 2 '-x,-y,-z'
 3 '-x,-1/2+y,-1/2-z'
 4 'x,-1/2-y,-1/2+z'
loop_
_atom_site_label
_atom_site_type_symbol
_atom_site_fract_x
_atom_site_fract_y
_atom_site_fract_z
H1    H     0.24462611060954 0.42197802067192 0.14341313972272 
H2    H     0.07919788995350 0.67969909018040 0.20340373028100 
H3    H     0.94193765981408 0.70663245989363 0.36001568030786 
H4    H     0.95978861016291 0.45298357012720 0.45491146027113 
H5    H     0.05092265968790 0.15360924935057 0.47546380009655 
H6    H     0.42969216031710 0.45018340946885 0.12631065993499 
H7    H     0.19168140006817 0.86427407071027 0.41340646978531 
H8    H     0.35607776974931 0.69367512008034 0.29695836986813 
H9    H     0.54300867993979 0.68685089999726 0.15118780003137 
H10   H     0.62834219021298 0.44570893051851 0.98995995027799 
H11   H     0.68417736009704 0.84699327042329 0.02065584009141 
H12   H     0.75370584013372 0.14026604970013 0.93113388023319 
C1    C     0.18888877013038 0.43294348944597 0.21215289993588 
C2    C     0.21038900027866 0.29433589025184 0.26455724983919 
C3    C     0.31034767021563 0.14248329929827 0.23265849002464 
C4    C     0.09401865958297 0.57729294986234 0.24565016028105 
C5    C     0.12013153947069 0.29971604049859 0.35378362022620 
C6    C     0.42887264041744 0.14643876005834 0.15114890994978 
C7    C     0.29311240974971 0.98196176953446 0.28632541985301 
C8    C     0.01469296038155 0.59080628958060 0.33419759985725 
C9    C     0.02649909009331 0.45176314071336 0.38686255016805 
C10   C     0.51057853056704 0.97779136965998 0.12166602968317 
C11   C     0.11901157010233 0.14556933982157 0.40769814971256 
C12   C     0.47851405992598 0.31434028970477 0.10172758999313 
C13   C     0.19683950984523 0.98739653999980 0.37381894022538 
C14   C     0.37615762978084 0.81662216030396 0.25491866018762 
C15   C     0.47902330981863 0.81261846937216 0.17449085987450 
C16   C     0.59334456980889 0.31251474972003 0.02493287021401 
C17   C     0.62613601015036 0.97875968068475 0.04190981017243 
C18   C     0.66589890004325 0.14213064057099 0.99288426026472 
