data_stdin
_audit_creation_method 'critic2'
_audit_creation_date 2023-8-11
_chemical_formula_sum 'C18 H12'
_cell_formula_units_Z 4
_cell_length_a        17.1381869000
_cell_length_b        10.3421796404
_cell_length_c         6.8378976201
_cell_angle_alpha        90.0001
_cell_angle_beta        89.9997
_cell_angle_gamma        89.9995
_cell_volume          1211.991421
_space_group_crystal_system orthorhombic
_space_group_IT_number 19
_space_group_name_H-M_alt 'P2_12_12_1'
_space_group_name_Hall 'P 2ac 2ab'
loop_
_symmetry_equiv_pos_site_id
_symmetry_equiv_pos_as_xyz
 1 'x,y,z'
 2 '-1/2+x,-1/2-y,-z'
 3 '-1/2-x,-y,-1/2+z'
 4 '-x,-1/2+y,-1/2-z'
loop_
_atom_site_label
_atom_site_type_symbol
_atom_site_fract_x
_atom_site_fract_y
_atom_site_fract_z
H1    H     0.32151974984431 0.60552816037835 0.67559181028223 
H2    H     0.21010554019593 0.49434737023883 0.81451368998261 
H3    H     0.12687311017683 0.60228114039777 0.06990825960059 
H4    H     0.16726454005408 0.81641097967867 0.19936471072893 
H5    H     0.25977448983755 0.99157369966511 0.21754548065266 
H6    H     0.31692506987727 0.71429107040771 0.44478510977131 
H7    H     0.38397056013599 0.09222275027686 0.11294081978611 
H8    H     0.49625744027339 0.09905769037421 0.90724419997113 
H9    H     0.57272951971821 0.01990180965548 0.62390953939761 
H10   H     0.38932694998602 0.65202935964859 0.15231066039071 
H11   H     0.58373744025050 0.88379015972305 0.33635447001784 
H12   H     0.52592464992486 0.72829425993782 0.10018059940899 
C1    C     0.28645766019220 0.65611057020923 0.78301397003358 
C2    C     0.30796544015507 0.78252269009513 0.84306117991524 
C3    C     0.37335814975781 0.85376875023534 0.76197856981853 
C4    C     0.22351158025017 0.59188917000228 0.86421456053947 
C5    C     0.26547204002069 0.83681367971111 0.00423659004925 
C6    C     0.41131593025712 0.82242386027891 0.57840643977536 
C7    C     0.40262625979317 0.96020955044512 0.87100201013143 
C8    C     0.17790146015819 0.65116318982300 0.01034057976779 
C9    C     0.19965639010021 0.77108221953544 0.08064470933068 
C10   C     0.48572383024350 0.87918931975094 0.53483050052318 
C11   C     0.29233096004825 0.95275701032247 0.09447008972255 
C12   C     0.37740528973846 0.74398960024016 0.43094498029023 
C13   C     0.36055420011254 0.00868594010244 0.03566413064088 
C14   C     0.47460483023347 0.02007070021209 0.81706029961089 
C15   C     0.51646089972544 0.97699857981306 0.66005822058650 
C16   C     0.41785572014594 0.71072472029216 0.26330350067101 
C17   C     0.52639935008894 0.84203096978523 0.36358371038872 
C18   C     0.49409832999653 0.75641993982131 0.23126789016213 
