data_stdin
_audit_creation_method 'critic2'
_audit_creation_date 2023-8-11
_chemical_formula_sum 'C18 H12'
_cell_formula_units_Z 8
_cell_length_a         9.9052737324
_cell_length_b        21.0134200100
_cell_length_c        11.4324637902
_cell_angle_alpha        90.0003
_cell_angle_beta        90.0001
_cell_angle_gamma        90.0013
_cell_volume          2379.595053
_space_group_crystal_system orthorhombic
_space_group_IT_number 61
_space_group_name_H-M_alt 'Pbca'
_space_group_name_Hall '-P 2ac 2ab'
loop_
_symmetry_equiv_pos_site_id
_symmetry_equiv_pos_as_xyz
 1 'x,y,z'
 2 '-x,-y,-z'
 3 '-1/2-x,-y,-1/2+z'
 4 '-1/2+x,y,-1/2-z'
 5 '-1/2+x,-1/2-y,-z'
 6 '-1/2-x,-1/2+y,z'
 7 '-x,-1/2+y,-1/2-z'
 8 'x,-1/2-y,-1/2+z'
loop_
_atom_site_label
_atom_site_type_symbol
_atom_site_fract_x
_atom_site_fract_y
_atom_site_fract_z
H1    H     0.39003370959453 0.83237670984014 0.61201781039026 
H2    H     0.29663816986275 0.92297871987531 0.71705636999544 
H3    H     0.25503011986127 0.02628095017736 0.61504498998939 
H4    H     0.33093272986918 0.03905511996766 0.40922672972932 
H5    H     0.45098432961604 0.99963208001147 0.24100520993739 
H6    H     0.27673976985326 0.77059543995367 0.53266287979565 
H7    H     0.58204825022203 0.91376053977094 0.14440890979205 
H8    H     0.65747131049257 0.80746278020122 0.13293218980664 
H9    H     0.65702663954248 0.69570873986025 0.20047424991226 
H10   H     0.25275734006619 0.65837258021115 0.57529416032863 
H11   H     0.55880281018505 0.61352991015001 0.32102698034880 
H12   H     0.39734247997187 0.57759534989913 0.47299772976853 
C1    C     0.36932857962960 0.87580687997732 0.56382552988691 
C2    C     0.40340981965506 0.87977095982140 0.44349559026736 
C3    C     0.45650618021835 0.82692797002315 0.37577590005457 
C4    C     0.31728714976248 0.92751169010010 0.62382979027407 
C5    C     0.39445729963494 0.94139556003430 0.38981697034449 
C6    C     0.43952102047344 0.76031528989867 0.40595910003551 
C7    C     0.52768543025283 0.84164569981746 0.27132040012881 
C8    C     0.29569760969702 0.98596218000846 0.56676763012502 
C9    C     0.33637451032298 0.99274712021595 0.45194184014132 
C10   C     0.51462829001166 0.71325935998805 0.34208317017830 
C11   C     0.45513915966712 0.95200641022223 0.27844343003304 
C12   C     0.34387204952272 0.73759017015149 0.48864154035172 
C13   C     0.52656827969038 0.90474957996579 0.22497155025604 
C14   C     0.60044025965468 0.79354537995341 0.21008630022332 
C15   C     0.59900431979084 0.73181160998551 0.24696065011191 
C16   C     0.32811218019903 0.67340404994393 0.51173549034083 
C17   C     0.49890643011158 0.64800594979567 0.36953804988660 
C18   C     0.40819709978417 0.62803106994457 0.45342982974276 
