data_stdin
_audit_creation_method 'critic2'
_audit_creation_date 2023-8-11
_chemical_formula_sum 'C18 H12'
_cell_formula_units_Z 8
_cell_length_a         8.4017634809
_cell_length_b         7.5918882949
_cell_length_c        37.8424221378
_cell_angle_alpha        89.9931
_cell_angle_beta        89.9683
_cell_angle_gamma        90.0001
_cell_volume          2413.787965
_space_group_crystal_system monoclinic
_space_group_IT_number 14
_space_group_name_H-M_alt 'P2_1/c'
_space_group_name_Hall '-P 2ybc'
loop_
_symmetry_equiv_pos_site_id
_symmetry_equiv_pos_as_xyz
 1 'x,y,z'
 2 '-x,-y,-z'
 3 '-x,-1/2+y,-1/2-z'
 4 'x,-1/2-y,-1/2+z'
loop_
_atom_site_label
_atom_site_type_symbol
_atom_site_fract_x
_atom_site_fract_y
_atom_site_fract_z
H1    H     0.34346375970769 0.85127851940950 0.63153543012740 
H2    H     0.84366875995971 0.64860796052238 0.36842589002864 
H3    H     0.54878345050811 0.90466995015464 0.58771048989203 
H4    H     0.04889143970072 0.59524214937418 0.41222673001142 
H5    H     0.48168309953233 0.92949768964927 0.52391137989654 
H6    H     0.98165287059238 0.57044194974079 0.47603442997949 
H7    H     0.19957681967201 0.89358148998229 0.50467444988480 
H8    H     0.69951586946826 0.60642116957716 0.49531004999361 
H9    H     0.92551782998219 0.82277066045485 0.51790595005233 
H10   H     0.42550101944669 0.67717950044054 0.48211987987127 
H11   H     0.23394527991999 0.04495870946751 0.65536946991165 
H12   H     0.73410027052371 0.45497924974080 0.34460591990555 
H13   H     0.72379358974137 0.71761196018303 0.56086254988286 
H14   H     0.22382056016467 0.78231125053139 0.43919476006522 
H15   H     0.64181635031451 0.65181790945970 0.62018679010235 
H16   H     0.14201305968112 0.84829914938149 0.37988260994814 
H17   H     0.68179531035246 0.66813195962680 0.68473027999000 
H18   H     0.18209264976997 0.83194392976713 0.31533573997893 
H19   H     0.24927194052174 0.09666025009575 0.71853980988257 
H20   H     0.74942001046908 0.40312951950167 0.28143478012225 
H21   H     0.82895259966475 0.78250780989198 0.73476681989229 
H22   H     0.32915385023278 0.71735161975819 0.26528333004978 
H23   H     0.05056610045418 0.95779254000847 0.75979431008360 
H24   H     0.55075233976322 0.54192501977417 0.24021611998092 
C1    C     0.30811310032561 0.86952556018107 0.60420317987503 
C2    C     0.80825855970325 0.63040335986868 0.39576443006683 
C3    C     0.14534456019447 0.85883279060637 0.59463640012890 
C4    C     0.64546312953851 0.64113968046775 0.40535355991211 
C5    C     0.01776667002094 0.83223866968916 0.61985822996026 
C6    C     0.51793049034718 0.66775468061159 0.38015198013184 
C7    C     0.42569398040975 0.89475324970271 0.57921268007244 
C8    C     0.92577976970558 0.60518187016440 0.42073967008854 
C9    C     0.10861554986532 0.86136543031944 0.55762279991566 
C10   C     0.60866828020938 0.63862536027113 0.44237360986858 
C11   C     0.03084481014815 0.86771945024577 0.65740958987210 
C12   C     0.53104133021480 0.63225348002136 0.34259788995640 
C13   C     0.86996562022119 0.76805787964095 0.60695650007772 
C14   C     0.37010872997286 0.73195437937305 0.39307882996262 
C15   C     0.38737779008699 0.90859277017280 0.54317659990197 
C16   C     0.88739219000554 0.59136841003171 0.45678258006690 
C17   C     0.23108589964471 0.89044556971444 0.53261282994994 
C18   C     0.73107595058562 0.60954693940675 0.46736635003806 
C19   C     0.90949100028769 0.80290311019255 0.68077216006296 
C20   C     0.40971777043944 0.69706759031397 0.31925743007748 
C21   C     0.95147759958536 0.82003188960295 0.54611486009952 
C22   C     0.45150131045494 0.67994216062601 0.45390677010199 
C23   C     0.14977991944343 0.97762624958776 0.67243145004706 
C24   C     0.64996116002500 0.52229302065450 0.32755591009772 
C25   C     0.83950884974506 0.76450173007420 0.56982806006628 
C26   C     0.33957516946233 0.73546795971573 0.43021277987348 
C27   C     0.75048837044464 0.70834533989950 0.63096803009875 
C28   C     0.25069325034090 0.79171929038796 0.36908937010509 
C29   C     0.77217585039917 0.71802104004273 0.66666108989080 
C30   C     0.27241887955379 0.78202563968972 0.33339222006474 
C31   C     0.15689812993782 0.00959485015382 0.70840439009125 
C32   C     0.65706785978212 0.49025394041517 0.29158338012332 
C33   C     0.92183082059017 0.83405779972543 0.71756001997927 
C34   C     0.42203662972304 0.66582501979718 0.28246910992991 
C35   C     0.04444447048810 0.93351847981634 0.73146193012035 
C36   C     0.54462626979973 0.56628840973009 0.26854673994745 
