data_stdin
_audit_creation_method 'critic2'
_audit_creation_date 2023-8-11
_chemical_formula_sum 'C18 H12'
_cell_formula_units_Z 2
_cell_length_a         3.8430352695
_cell_length_b        15.5848328443
_cell_length_c        10.2880902087
_cell_angle_alpha       109.5592
_cell_angle_beta        93.1062
_cell_angle_gamma        83.3846
_cell_volume           576.682839
_space_group_crystal_system triclinic
_space_group_IT_number 2
_space_group_name_H-M_alt 'P-1'
_space_group_name_Hall '-P 1'
loop_
_symmetry_equiv_pos_site_id
_symmetry_equiv_pos_as_xyz
 1 'x,y,z'
 2 '-x,-y,-z'
loop_
_atom_site_label
_atom_site_type_symbol
_atom_site_fract_x
_atom_site_fract_y
_atom_site_fract_z
H1    H     0.89978761984469 0.60235308969119 0.07404018970959 
H2    H     0.92072521939373 0.47928905009730 0.17149875019994 
H3    H     0.64332600926911 0.50526690983516 0.39664642001233 
H4    H     0.35591454898532 0.65998164988055 0.52523832999514 
H5    H     0.20428351901146 0.81944990984914 0.55107956978302 
H6    H     0.54298768906895 0.62700024990129 0.94384793989833 
H7    H     0.24771412037628 0.95049375021312 0.46981435965715 
H8    H     0.45526377110506 0.01357224017442 0.31081902034365 
H9    H     0.71782023088992 0.99564204990996 0.08732385968918 
H10   H     0.70279615013682 0.61570050986022 0.71213466003149 
H11   H     0.87256411073651 0.90033667967385 0.85487891965211 
H12   H     0.88661006931042 0.75076358962406 0.66535771960800 
C1    C     0.75985745015561 0.61470859013771 0.16834341984423 
C2    C     0.58609645922026 0.70284637986531 0.23558012018090 
C3    C     0.56765354999380 0.77812060961268 0.18166431955918 
C4    C     0.77837469053995 0.54530596996669 0.22474305953304 
C5    C     0.45016914032480 0.71882430980533 0.36986148043121 
C6    C     0.64683399072386 0.76852247003687 0.04092898998483 
C7    C     0.47289668059608 0.86777626995113 0.27348657957932 
C8    C     0.62596623007067 0.56034642016753 0.35281514997176 
C9    C     0.46723392888918 0.64616365018979 0.42424094987906 
C10   C     0.71637435988277 0.84793474031471 0.00982370041908 
C11   C     0.31378635042593 0.80884348973510 0.45074297968950 
C12   C     0.63571932947773 0.68598127952498 0.92826480950005 
C13   C     0.33601279090342 0.88095650023365 0.40565610995760 
C14   C     0.52209894881575 0.94578623986260 0.23610234986873 
C15   C     0.66307060906359 0.93607855963081 0.11244886958638 
C16   C     0.71911186890289 0.68003593973291 0.79622215955699 
C17   C     0.81311838959313 0.83927962028246 0.87490006001032 
C18   C     0.81915150958281 0.75642015016837 0.76946869019951 
