data_stdin
_audit_creation_method 'critic2'
_audit_creation_date 2023-8-11
_chemical_formula_sum 'C18 H12'
_cell_formula_units_Z 4
_cell_length_a        14.8157560601
_cell_length_b        20.0688679800
_cell_length_c         3.8836833128
_cell_angle_alpha        90.0018
_cell_angle_beta        90.0015
_cell_angle_gamma        90.0003
_cell_volume          1154.756734
_space_group_crystal_system orthorhombic
_space_group_IT_number 33
_space_group_name_H-M_alt 'Pna2_1'
_space_group_name_Hall 'P 2c -2n'
loop_
_symmetry_equiv_pos_site_id
_symmetry_equiv_pos_as_xyz
 1 'x,y,z'
 2 '-x,-y,-1/2+z'
 3 '-1/2-x,-1/2+y,-1/2+z'
 4 '-1/2+x,-1/2-y,z'
loop_
_atom_site_label
_atom_site_type_symbol
_atom_site_fract_x
_atom_site_fract_y
_atom_site_fract_z
H1    H     0.56328322994455 0.53430420016483 0.98566779982810 
H2    H     0.41149000012114 0.56354468017328 0.79823896980409 
H3    H     0.37140316999306 0.68099051998922 0.66135899114217 
H4    H     0.48564164016957 0.77011194994884 0.75872929921844 
H5    H     0.63153297976535 0.80597150990980 0.94408264081598 
H6    H     0.65302999023666 0.50608346020475 0.67732239084482 
H7    H     0.78320456019044 0.77986076020743 0.18028070961378 
H8    H     0.89690425995055 0.70454135983140 0.33372670951744 
H9    H     0.95985352980159 0.59009529990817 0.37075649933447 
H10   H     0.72340645983888 0.39694453983756 0.66914972071503 
H11   H     0.94949791029158 0.47372149995834 0.24104969066539 
H12   H     0.87113410984946 0.37759848994328 0.96401517087665 
C1    C     0.54975047015885 0.58556923004031 0.91454636087595 
C2    C     0.61925475014982 0.63401926020288 0.93822798877435 
C3    C     0.71290045982528 0.61934436022475 0.01948389981551 
C4    C     0.46287451974916 0.60213894996195 0.81628996076968 
C5    C     0.59230053026551 0.70224436021271 0.89581215048530 
C6    C     0.75428696968491 0.55392592991193 0.99519762901233 
C7    C     0.76865263997546 0.67323781985254 0.12445929996928 
C8    C     0.43965975982996 0.66855847021862 0.74297407990189 
C9    C     0.50335947024671 0.71779638004940 0.79140027903540 
C10   C     0.84320596988872 0.54390022999041 0.13295261086405 
C11   C     0.65378010015099 0.75457283980673 0.97508182876526 
C12   C     0.71490254985414 0.49898940020170 0.82119812958153 
C13   C     0.73733273004309 0.74028251977938 0.10186902941788 
C14   C     0.85768507013438 0.66166261977159 0.24997353025173 
C15   C     0.89268087003346 0.59892253010868 0.26674551944634 
C16   C     0.75583632015638 0.43711520988569 0.81099490010515 
C17   C     0.88317514015378 0.47987738004664 0.12381174993263 
C18   C     0.83987069005575 0.42670131012439 0.97070121011576 
