data_stdin
_audit_creation_method 'critic2'
_audit_creation_date 2023-8-11
_chemical_formula_sum 'C18 H12'
_cell_formula_units_Z 8
_cell_length_a        19.1725390595
_cell_length_b         8.0732653913
_cell_length_c        15.4412096530
_cell_angle_alpha        90.0005
_cell_angle_beta        83.4500
_cell_angle_gamma        89.9991
_cell_volume          2374.467057
_space_group_crystal_system monoclinic
_space_group_IT_number 15
_space_group_name_H-M_alt 'C2/c'
_space_group_name_Hall '-C 2yc'
loop_
_symmetry_equiv_pos_site_id
_symmetry_equiv_pos_as_xyz
 1 'x,y,z'
 2 '-x,-y,-z'
 3 '-x,y,-1/2-z'
 4 'x,-y,-1/2+z'
 5 '-1/2+x,-1/2+y,z'
 6 '-1/2-x,-1/2-y,-z'
 7 '-1/2-x,-1/2+y,-1/2-z'
 8 '-1/2+x,-1/2-y,-1/2+z'
loop_
_atom_site_label
_atom_site_type_symbol
_atom_site_fract_x
_atom_site_fract_y
_atom_site_fract_z
H1    H     0.46908240935801 0.05598273470054 0.67404352780441 
H2    H     0.35921768116572 0.92024637114266 0.64854770775428 
H3    H     0.26821226569296 0.07248275460245 0.57735775347092 
H4    H     0.28660773986459 0.37110615649764 0.54086817893975 
H5    H     0.35489204749336 0.62360426523498 0.54309038336578 
H6    H     0.55363432885728 0.05874441931179 0.58087358388939 
H7    H     0.45652970045555 0.77265615505749 0.59115552477714 
H8    H     0.56229858375958 0.77620728551100 0.66023719340202 
H9    H     0.66520567802782 0.63218063858170 0.70825579413261 
H10   H     0.66533422338807 0.92946235355143 0.60228618358708 
H11   H     0.73485438877187 0.38153723329505 0.71244591628434 
H12   H     0.75608710085040 0.08590998898821 0.67324339314297 
C1    C     0.43144019029667 0.12344715208007 0.64004092079000 
C2    C     0.44547276933169 0.29064021359735 0.61569322507080 
C3    C     0.50991213922697 0.37556037976998 0.62884059875692 
C4    C     0.36886397967349 0.04740772750330 0.62699434358254 
C5    C     0.38980953732843 0.38202623837552 0.58315453024285 
C6    C     0.57534382636631 0.29358892699819 0.64072149584188 
C7    C     0.50942922302424 0.55117946714263 0.62801979531819 
C8    C     0.31693715096244 0.13431534048986 0.58808971086974 
C9    C     0.32731789279238 0.29953566466578 0.56753846863360 
C10   C     0.63082083027679 0.38783387916933 0.67198474751866 
C11   C     0.39633549700112 0.55655703626154 0.57096005255062 
C12   C     0.59095835291139 0.12795010830438 0.61460115426301 
C13   C     0.45269565008695 0.63845284079744 0.59680262166766 
C14   C     0.56614441505488 0.64168986452292 0.65730317994791 
C15   C     0.62316936302932 0.56254489148077 0.68313888041857 
C16   C     0.65482217617527 0.05541660096164 0.62535117608535 
C17   C     0.69447276716980 0.30869879482085 0.68580557401953 
C18   C     0.70636829249670 0.14452081075099 0.66380573615931 
