data_stdin
_audit_creation_method 'critic2'
_audit_creation_date 2023-8-11
_chemical_formula_sum 'C18 H12'
_cell_formula_units_Z 8
_cell_length_a        14.6118835735
_cell_length_b         5.7378541361
_cell_length_c        27.8910253627
_cell_angle_alpha        89.9994
_cell_angle_beta        91.0647
_cell_angle_gamma        90.0019
_cell_volume          2338.003699
_space_group_crystal_system monoclinic
_space_group_IT_number 15
_space_group_name_H-M_alt 'C2/c'
_space_group_name_Hall '-C 2yc'
loop_
_symmetry_equiv_pos_site_id
_symmetry_equiv_pos_as_xyz
 1 'x,y,z'
 2 '-1/2-x,-1/2-y,-z'
 3 '-1/2-x,-1/2+y,-1/2-z'
 4 'x,-y,-1/2+z'
 5 '-1/2+x,-1/2+y,z'
 6 '-x,-y,-z'
 7 '-x,y,-1/2-z'
 8 '-1/2+x,-1/2-y,-1/2+z'
loop_
_atom_site_label
_atom_site_type_symbol
_atom_site_fract_x
_atom_site_fract_y
_atom_site_fract_z
H1    H     0.40480609986638 0.04186071066236 0.91053949983904 
H2    H     0.47731751969221 0.74423857025804 0.96120667001933 
H3    H     0.38810264017972 0.40099825970711 0.98927219007597 
H4    H     0.22109469010628 0.38119663015026 0.97079115008997 
H5    H     0.08298582986179 0.55651560060777 0.93966566011371 
H6    H     0.40376316970820 0.01560717990714 0.84046803013361 
H7    H     0.00393667022989 0.87970309013192 0.89625879983164 
H8    H     0.00633946983849 0.22237039056400 0.84964497016414 
H9    H     0.08980422996806 0.53592331920918 0.80672260982543 
H10   H     0.48043298972470 0.30451975063205 0.79091453999465 
H11   H     0.22988475993558 0.69211585954411 0.77596513988268 
H12   H     0.39542993021003 0.65325288056457 0.75985636007457 
C1    C     0.36500485969871 0.89123770972230 0.92105342014488 
C2    C     0.27165836994389 0.87489513936176 0.90639795995866 
C3    C     0.22641528003199 0.03837220915317 0.87414099983160 
C4    C     0.40568106993201 0.72508182963709 0.95041675016658 
C5    C     0.21882179971039 0.69331077072734 0.92784693995282 
C6    C     0.27352175016542 0.19609885916264 0.84232526016754 
C7    C     0.12917814014636 0.04403681914949 0.87361762998982 
C8    C     0.35519346988351 0.53291301004927 0.96681676990123 
C9    C     0.26269856986312 0.52112923923766 0.95634991989053 
C10   C     0.22330295029561 0.38282201014622 0.81992587985283 
C11   C     0.12171842029164 0.69460286043624 0.92256346986882 
C12   C     0.36619544027392 0.16954924016081 0.82908716989307 
C13   C     0.07834014978708 0.87075016032598 0.89841219989998 
C14   C     0.08077471987733 0.22305716919455 0.84826182985985 
C15   C     0.12640297011802 0.39331592014931 0.82427759014854 
C16   C     0.40903767980938 0.33028333959096 0.80008708993167 
C17   C     0.26914902007523 0.54846931919056 0.79145036984263 
C18   C     0.36129857010177 0.52607737971079 0.78229184011969 
