data_stdin
_audit_creation_method 'critic2'
_audit_creation_date 2023-8-11
_chemical_formula_sum 'C18 H12'
_cell_formula_units_Z 4
_cell_length_a        10.7350078735
_cell_length_b        11.3503005800
_cell_length_c         9.7184337751
_cell_angle_alpha        90.0000
_cell_angle_beta        93.6575
_cell_angle_gamma        90.0000
_cell_volume          1181.736258
_space_group_crystal_system monoclinic
_space_group_IT_number 14
_space_group_name_H-M_alt 'P2_1/c'
_space_group_name_Hall '-P 2ybc'
loop_
_symmetry_equiv_pos_site_id
_symmetry_equiv_pos_as_xyz
 1 'x,y,z'
 2 '-x,-y,-z'
 3 '-x,-1/2+y,-1/2-z'
 4 'x,-1/2-y,-1/2+z'
loop_
_atom_site_label
_atom_site_type_symbol
_atom_site_fract_x
_atom_site_fract_y
_atom_site_fract_z
H1    H     0.53595546030707 0.87754458017344 0.04045746009023 
H2    H     0.36495545968356 0.78229813026006 0.90555242968573 
H3    H     0.35771605000376 0.78182858027396 0.64955162002075 
H4    H     0.51936508014027 0.89343134961619 0.52951017964152 
H5    H     0.69511649016408 0.02621840006257 0.53617184995354 
H6    H     0.68821757999108 0.79568341023123 0.10095105970110 
H7    H     0.85242337964897 0.14690891956530 0.66976085011181 
H8    H     0.95718035965396 0.20608497004312 0.88159646972598 
H9    H     0.99934985013148 0.18680093988231 0.13425063969037 
H10   H     0.75471361038342 0.76323853009696 0.34112439956706 
H11   H     0.97276175004806 0.08144443957232 0.34502210956343 
H12   H     0.89152972963628 0.90951281035224 0.47057828015613 
C1    C     0.53777929965615 0.87663667016107 0.92903676011025 
C2    C     0.63561892951734 0.93493041002956 0.86473463965915 
C3    C     0.74180462017074 0.98967940008420 0.93945657021635 
C4    C     0.43975389957901 0.82405395030959 0.85287082990658 
C5    C     0.62266246972352 0.94583497958791 0.71734054000790 
C6    C     0.78127032012243 0.96466481040988 0.08205766030067 
C7    C     0.81266519962183 0.07267209020583 0.86773648049837 
C8    C     0.43418888984432 0.82593155992198 0.70784664029931 
C9    C     0.52381227034733 0.88745712001729 0.64164166020909 
C10   C     0.87034288960088 0.04115709977183 0.15301703024140 
C11   C     0.70594583973902 0.01967031990661 0.64811343995326 
C12   C     0.74495070016483 0.86278018974988 0.15395682975544 
C13   C     0.79362158963715 0.08513408989096 0.72174409010050 
C14   C     0.90521887043356 0.14327243978696 0.94037853963850 
C15   C     0.92916068000555 0.13198646996082 0.07936790030311 
C16   C     0.78436730038734 0.84301220030335 0.29040274023286 
C17   C     0.90624681041002 0.02095049962598 0.29355894008114 
C18   C     0.86295542952250 0.92438575009979 0.36250954967100 
