data_stdin
_audit_creation_method 'critic2'
_audit_creation_date 2023-8-11
_chemical_formula_sum 'C18 H12'
_cell_formula_units_Z 4
_cell_length_a        10.5026138494
_cell_length_b        11.7941665300
_cell_length_c        11.2124980295
_cell_angle_alpha        90.0000
_cell_angle_beta        61.9907
_cell_angle_gamma        90.0000
_cell_volume          1226.208392
_space_group_crystal_system monoclinic
_space_group_IT_number 14
_space_group_name_H-M_alt 'P2_1/c'
_space_group_name_Hall '-P 2ybc'
loop_
_symmetry_equiv_pos_site_id
_symmetry_equiv_pos_as_xyz
 1 'x,y,z'
 2 '-x,-y,-z'
 3 '-x,-1/2+y,-1/2-z'
 4 'x,-1/2-y,-1/2+z'
loop_
_atom_site_label
_atom_site_type_symbol
_atom_site_fract_x
_atom_site_fract_y
_atom_site_fract_z
H1    H     0.95065671016344 0.54434968000967 0.72047312041474 
H2    H     0.07784966067471 0.62411079032393 0.49534082957989 
H3    H     0.33339587967771 0.56869742037346 0.33960660991216 
H4    H     0.45962149987002 0.43775954020380 0.42223596018697 
H5    H     0.46733643965522 0.32785831018029 0.60028033984860 
H6    H     0.83180504025289 0.40987027969110 0.76988158951819 
H7    H     0.35304179948965 0.27173439958836 0.84189317035657 
H8    H     0.15440277016632 0.27042292971832 0.06253246026888 
H9    H     0.89558399051609 0.30095231988442 0.22057084978358 
H10   H     0.57299319988901 0.41304551958659 0.92515022999860 
H11   H     0.65620560989429 0.34373388016081 0.25905961963530 
H12   H     0.48147656997153 0.38834602027878 0.17300342006688 
C1    C     0.05908286990142 0.51458881995912 0.65446696958995 
C2    C     0.12497374942860 0.43506753982138 0.70318441027280 
C3    C     0.05356576994739 0.38520992013201 0.83709557041504 
C4    C     0.13222436043459 0.56179965999093 0.52695005962515 
C5    C     0.27496938992867 0.41124861020693 0.61727827010482 
C6    C     0.89870384991411 0.38472877014299 0.92405606002260 
C7    C     0.14163347947262 0.33512489020541 0.88764810040763 
C8    C     0.27602060019173 0.53124354960273 0.43992243002310 
C9    C     0.34601189962172 0.45760625001195 0.48544241041057 
C10   C     0.84368177021899 0.35756983964924 0.06438824031629 
C11   C     0.35422580014339 0.34649959973409 0.66751150019503 
C12   C     0.79568790018218 0.40142950004002 0.87737821010010 
C13   C     0.29107848994417 0.31482591008415 0.80008914980288 
C14   C     0.08230562992658 0.30482235977522 0.02672517005271 
C15   C     0.93942935975182 0.32042141965057 0.11361507035039 
C16   C     0.64900680997559 0.40164845987053 0.96485420987579 
C17   C     0.69350892998358 0.36199022967012 0.15244513034842 
C18   C     0.59692243972542 0.38574128972481 0.10460392017191 
