data_stdin
_audit_creation_method 'critic2'
_audit_creation_date 2023-8-11
_chemical_formula_sum 'C18 H12'
_cell_formula_units_Z 4
_cell_length_a        13.5414564643
_cell_length_b         7.8145560616
_cell_length_c        12.3554681350
_cell_angle_alpha        89.9990
_cell_angle_beta        68.3932
_cell_angle_gamma        89.9989
_cell_volume          1215.590168
_space_group_crystal_system monoclinic
_space_group_IT_number 14
_space_group_name_H-M_alt 'P2_1/c'
_space_group_name_Hall '-P 2ybc'
loop_
_symmetry_equiv_pos_site_id
_symmetry_equiv_pos_as_xyz
 1 'x,y,z'
 2 '-x,-y,-z'
 3 '-x,-1/2+y,-1/2-z'
 4 'x,-1/2-y,-1/2+z'
loop_
_atom_site_label
_atom_site_type_symbol
_atom_site_fract_x
_atom_site_fract_y
_atom_site_fract_z
H1    H     0.68130504012196 0.64687677017258 0.25511578996205 
H2    H     0.59184960987239 0.61201490989922 0.11725740984756 
H3    H     0.54470350044209 0.86619602034755 0.02447282958114 
H4    H     0.57540475023081 0.15838434037763 0.08702177019333 
H5    H     0.63301699982547 0.34401071958486 0.20746187997731 
H6    H     0.83277592027890 0.64708865973796 0.19910345023502 
H7    H     0.71192047984741 0.38421283993170 0.35838898985845 
H8    H     0.79701659045705 0.27711837060134 0.48091923964035 
H9    H     0.88484751028356 0.04458152950375 0.54709582013039 
H10   H     0.94813616002181 0.43993140950514 0.24199914028314 
H11   H     0.96582191029829 0.76381886939933 0.51535449965045 
H12   H     0.01593946987855 0.49473100974337 0.40052316978810 
C1    C     0.66514248999921 0.75974951994132 0.21325001977494 
C2    C     0.69461379016008 0.92353733968251 0.24110232032550 
C3    C     0.75661362024036 0.95170991978215 0.31360085027204 
C4    C     0.61264466985405 0.73972011950288 0.13694883990076 
C5    C     0.65513172978801 0.06892713046370 0.19852253965782 
C6    C     0.82332955007226 0.82353499031092 0.33780604006125 
C7    C     0.75543222979064 0.11825987987985 0.36030664999837 
C8    C     0.58432965017930 0.88336707033347 0.08602093970887 
C9    C     0.60261975997124 0.04515141963904 0.11946761024647 
C10   C     0.86734405981781 0.85754673964799 0.42508105008855 
C11   C     0.66495366018025 0.23600884988744 0.23973307965427 
C12   C     0.85658798011986 0.67080323948304 0.27242045006743 
C13   C     0.70875658012714 0.25821776054279 0.32211014967020 
C14   C     0.80221551996367 0.14879933062776 0.44488138978897 
C15   C     0.85164833994849 0.02060469984678 0.48050125977007 
C16   C     0.92357007005259 0.55461035955718 0.29506119012477 
C17   C     0.93375988982744 0.73472858057695 0.44844984982794 
C18   C     0.96170150975366 0.58523447947899 0.38484654986732 
