data_stdin
_audit_creation_method 'critic2'
_audit_creation_date 2023-8-11
_chemical_formula_sum 'C18 H12'
_cell_formula_units_Z 2
_cell_length_a        10.5217265542
_cell_length_b         7.1727533700
_cell_length_c         8.3106118258
_cell_angle_alpha        90.0000
_cell_angle_beta        72.7873
_cell_angle_gamma        90.0000
_cell_volume           599.109114
_space_group_crystal_system monoclinic
_space_group_IT_number 4
_space_group_name_H-M_alt 'P2_1'
_space_group_name_Hall 'P 2yb'
loop_
_symmetry_equiv_pos_site_id
_symmetry_equiv_pos_as_xyz
 1 'x,y,z'
 2 '-x,-1/2+y,-z'
loop_
_atom_site_label
_atom_site_type_symbol
_atom_site_fract_x
_atom_site_fract_y
_atom_site_fract_z
H1    H     0.05233657043992 0.98699787040584 0.88148078954378 
H2    H     0.81585512984700 0.04237595968402 0.91922260987016 
H3    H     0.66481195024066 0.14002740026981 0.19898471982809 
H4    H     0.75432275023354 0.16190664965768 0.44400707022555 
H5    H     0.93216611017237 0.12032555006270 0.56889568045168 
H6    H     0.18957244040865 0.19493931967105 0.81763920996897 
H7    H     0.16166620978623 0.01566081038038 0.54296487036649 
H8    H     0.37635558991095 0.90541165021391 0.37573565955631 
H9    H     0.54153986969397 0.84321641956267 0.10094668035957 
H10   H     0.36754507989490 0.17210872950657 0.55095385955472 
H11   H     0.61090811954843 0.86860152965324 0.79524592061391 
H12   H     0.57407092964035 0.99186711060248 0.53243560054748 
C1    C     0.98996328043046 0.03600283967847 0.00276127999270 
C2    C     0.04597018004276 0.05920400033808 0.13737789021433 
C3    C     0.18568743993858 0.03179393933880 0.12091465020340 
C4    C     0.85573603048042 0.06351390972995 0.02480285949843 
C5    C     0.95580548970277 0.09631816990801 0.30106638970480 
C6    C     0.29028491995050 0.03004475938425 0.96189746020177 
C7    C     0.22245400013879 0.00126023032094 0.27011432957616 
C8    C     0.76985399994410 0.11536775036943 0.18322293060574 
C9    C     0.81967778019823 0.12908947932310 0.31890146013547 
C10   C     0.41757568969146 0.95260219995072 0.95517823971419 
C11   C     0.00188259042695 0.08950551998844 0.44596951970167 
C12   C     0.27768475034484 0.11355261991804 0.81263977960426 
C13   C     0.12902576980795 0.03469581036521 0.43138697037287 
C14   C     0.35264367018122 0.93470187040357 0.25931914980024 
C15   C     0.44474672045134 0.90183858026863 0.10736608945440 
C16   C     0.37891501057310 0.10266904018786 0.66229878939540 
C17   C     0.51706681997229 0.93511017930650 0.79814289981387 
C18   C     0.49716992968731 0.00520401966834 0.65267680047826 
