data_stdin
_audit_creation_method 'critic2'
_audit_creation_date 2023-8-11
_chemical_formula_sum 'C18 H12'
_cell_formula_units_Z 4
_cell_length_a        11.6735438324
_cell_length_b         9.9626335400
_cell_length_c        10.5384470536
_cell_angle_alpha        90.0000
_cell_angle_beta        75.7949
_cell_angle_gamma        90.0000
_cell_volume          1188.138231
_space_group_crystal_system monoclinic
_space_group_IT_number 14
_space_group_name_H-M_alt 'P2_1/c'
_space_group_name_Hall '-P 2ybc'
loop_
_symmetry_equiv_pos_site_id
_symmetry_equiv_pos_as_xyz
 1 'x,y,z'
 2 '-x,-y,-z'
 3 '-1/2-x,-1/2+y,-1/2-z'
 4 '-1/2+x,-1/2-y,-1/2+z'
loop_
_atom_site_label
_atom_site_type_symbol
_atom_site_fract_x
_atom_site_fract_y
_atom_site_fract_z
H1    H     0.19144834000531 0.65262084978697 0.55719744025664 
H2    H     0.11756127967783 0.49474939981999 0.73406934997982 
H3    H     0.22196757958990 0.27484331031017 0.74196914003841 
H4    H     0.39309044998482 0.21516140048551 0.56113738015040 
H5    H     0.51518855982132 0.25479705020447 0.34586135959588 
H6    H     0.30863480976065 0.79195842014024 0.55769727991444 
H7    H     0.57073304003619 0.39569880957532 0.14616393041191 
H8    H     0.55158906019089 0.59614916032666 0.02846164037202 
H9    H     0.47270416964434 0.82589509981048 0.01768593016429 
H10   H     0.26561444001939 0.03041838991924 0.55048648971070 
H11   H     0.38349199989677 0.02569121956156 0.13044387960348 
H12   H     0.29521668022871 0.15000494032507 0.33574761046205 
C1    C     0.24035356028999 0.56029033049762 0.55909645004941 
C2    C     0.34116145015834 0.53132835015393 0.45618905996698 
C3    C     0.38860470002419 0.62118993956948 0.34769741977912 
C4    C     0.19725048026401 0.46986589960270 0.65928178971261 
C5    C     0.39159473011360 0.40004984023216 0.45543191994412 
C6    C     0.36364078040933 0.76372652028538 0.34776215005219 
C7    C     0.46466565967927 0.56626172959182 0.23325126034210 
C8    C     0.25432269024487 0.34587689026438 0.66287545008922 
C9    C     0.34967207964519 0.31203302958791 0.56196662976408 
C10   C     0.39188882951083 0.83622535958353 0.22632273033386 
C11   C     0.47890157959456 0.35527516973939 0.34399201016015 
C12   C     0.32057750002579 0.84001361954894 0.46313879029158 
C13   C     0.50983330999020 0.43324433969034 0.23447784007450 
C14   C     0.49552931973948 0.64275130997532 0.11516736047972 
C15   C     0.45434548995056 0.77043170995758 0.10963659983082 
C16   C     0.29761839013056 0.97594764963002 0.45909291974254 
C17   C     0.36428825976500 0.97442814997619 0.22452687011014 
C18   C     0.31613029005070 0.04376461969361 0.33857356952258 
