data_stdin
_audit_creation_method 'critic2'
_audit_creation_date 2023-8-11
_chemical_formula_sum 'C18 H12'
_cell_formula_units_Z 4
_cell_length_a        11.4451432298
_cell_length_b         7.7784201027
_cell_length_c        14.7419734623
_cell_angle_alpha        90.0016
_cell_angle_beta       114.9048
_cell_angle_gamma        89.9990
_cell_volume          1190.363670
_space_group_crystal_system monoclinic
_space_group_IT_number 14
_space_group_name_H-M_alt 'P2_1/c'
_space_group_name_Hall '-P 2ybc'
loop_
_symmetry_equiv_pos_site_id
_symmetry_equiv_pos_as_xyz
 1 'x,y,z'
 2 '-x,-y,-z'
 3 '-x,-1/2+y,-1/2-z'
 4 'x,-1/2-y,-1/2+z'
loop_
_atom_site_label
_atom_site_type_symbol
_atom_site_fract_x
_atom_site_fract_y
_atom_site_fract_z
H1    H     0.01994962026829 0.90795497035820 0.73826691004731 
H2    H     0.79772087029458 0.00973873986321 0.65469284989694 
H3    H     0.65649256028086 0.01573487976209 0.74538437972526 
H4    H     0.73645180994112 0.88519293963750 0.91594468983217 
H5    H     0.89996766052317 0.73357040022885 0.05424042020281 
H6    H     0.15720635041831 0.07546096052865 0.81766082029880 
H7    H     0.11759419019895 0.60056271958609 0.13241541003159 
H8    H     0.32267383048459 0.54097804058692 0.13473837017451 
H9    H     0.48897459991711 0.58747924024693 0.07053559032719 
H10   H     0.33412465033488 0.14867605939541 0.77483227010204 
H11   H     0.56441718015987 0.74212842966070 0.96333575021590 
H12   H     0.53643957031812 0.97558145987226 0.84023250013043 
C1    C     0.96097374996639 0.91052532992765 0.77972497985582 
C2    C     0.01339867013029 0.85151789019635 0.88006048992369 
C3    C     0.14687003961317 0.80192056957728 0.93543149991381 
C4    C     0.83465623050011 0.96572626021569 0.73179333015148 
C5    C     0.92612310950179 0.83195069937650 0.92625401988477 
C6    C     0.25046401990450 0.85320555952776 0.90911322017289 
C7    C     0.17856664968218 0.69928539009773 0.02222050008851 
C8    C     0.75396018987051 0.96458039023961 0.78217740969301 
C9    C     0.79855996985683 0.89425113031268 0.87688057985946 
C10   C     0.37273699002012 0.76790940989354 0.95575674014690 
C11   C     0.96757119956558 0.74647074983771 0.02020910999321 
C12   C     0.24218662951637 0.99403136003838 0.84546109970885 
C13   C     0.08736964016363 0.67481350995464 0.06367161976576 
C14   C     0.30304505955873 0.62233226979726 0.06983857963030 
C15   C     0.39494938002032 0.64905929036254 0.03499558006268 
C16   C     0.34328909988544 0.03686988040264 0.82173769969101 
C17   C     0.47301471953233 0.81015167002924 0.92733207979007 
C18   C     0.45805732036314 0.94064996059436 0.85994150020925 
