data_stdin
_audit_creation_method 'critic2'
_audit_creation_date 2023-8-11
_chemical_formula_sum 'C18 H12'
_cell_formula_units_Z 4
_cell_length_a        25.0862077026
_cell_length_b         7.8156339881
_cell_length_c         6.1704692721
_cell_angle_alpha        90.0003
_cell_angle_beta        89.9957
_cell_angle_gamma        90.0093
_cell_volume          1209.810679
_space_group_crystal_system orthorhombic
_space_group_IT_number 29
_space_group_name_H-M_alt 'Pca2_1'
_space_group_name_Hall 'P 2c -2ac'
loop_
_symmetry_equiv_pos_site_id
_symmetry_equiv_pos_as_xyz
 1 'x,y,z'
 2 '-x,-y,-1/2+z'
 3 '-1/2-x,y,-1/2+z'
 4 '-1/2+x,-y,z'
loop_
_atom_site_label
_atom_site_type_symbol
_atom_site_fract_x
_atom_site_fract_y
_atom_site_fract_z
H1    H     0.61487629982416 0.95082120963863 0.00539729043169 
H2    H     0.65032938985081 0.10557828971321 0.69445662008087 
H3    H     0.70427550006027 0.95263202061905 0.41066113939345 
H4    H     0.72607731011522 0.64702254012760 0.46396136935646 
H5    H     0.72392542980204 0.39036198965979 0.67737270046932 
H6    H     0.54373755012810 0.84393524008185 0.00023749988015 
H7    H     0.69606720000397 0.23480509961738 0.00997830922167 
H8    H     0.64783510989664 0.21903431992555 0.34036443029081 
H9    H     0.58513769013071 0.34261644036799 0.61083302927693 
H10   H     0.47275730983430 0.93500059017547 0.24291981031204 
H11   H     0.52077585994077 0.55598648030595 0.71008236058840 
H12   H     0.46235855989792 0.79910899977219 0.61021282995036 
C1    C     0.63641136992145 0.88000537019813 0.88189858948208 
C2    C     0.64453161990176 0.70147048941941 0.90799769008718 
C3    C     0.62189262996010 0.60106529963683 0.08301231955375 
C4    C     0.65733861010906 0.96852829039817 0.70711824964771 
C5    C     0.68004473005591 0.62046857976516 0.75742381037704 
C6    C     0.57800074012894 0.65653233002233 0.21885111972419 
C7    C     0.64406738003584 0.43695749967733 0.12426756940219 
C8    C     0.68834936997688 0.88389632949458 0.55003167006314 
C9    C     0.70022981018130 0.71293200954192 0.57817560957198 
C10   C     0.56734600983355 0.56596171973548 0.41638100931158 
C11   C     0.69687440991794 0.44864917979848 0.79394050040327 
C12   C     0.54154450016668 0.78737146040809 0.16054134077570 
C13   C     0.68129168996359 0.36329726038856 0.97627519979146 
C14   C     0.62944523019808 0.34360414983668 0.31385274996391 
C15   C     0.59459132007735 0.41008644951716 0.46134541960386 
C16   C     0.50058377003313 0.83687737944221 0.29720754066578 
C17   C     0.52683752017221 0.62395684969534 0.55807404071363 
C18   C     0.49411517994695 0.75885848016988 0.50133094030775 
