data_stdin
_audit_creation_method 'critic2'
_audit_creation_date 2023-8-11
_chemical_formula_sum 'C18 H12'
_cell_formula_units_Z 4
_cell_length_a         7.7498101689
_cell_length_b        10.4482437200
_cell_length_c        14.6380891494
_cell_angle_alpha        90.0000
_cell_angle_beta        81.6804
_cell_angle_gamma        90.0000
_cell_volume          1172.800676
_space_group_crystal_system monoclinic
_space_group_IT_number 14
_space_group_name_H-M_alt 'P2_1/c'
_space_group_name_Hall '-P 2ybc'
loop_
_symmetry_equiv_pos_site_id
_symmetry_equiv_pos_as_xyz
 1 'x,y,z'
 2 '-x,-y,-z'
 3 '-x,-1/2+y,-1/2-z'
 4 'x,-1/2-y,-1/2+z'
loop_
_atom_site_label
_atom_site_type_symbol
_atom_site_fract_x
_atom_site_fract_y
_atom_site_fract_z
H1    H     0.62622723979570 0.41410055987204 0.73838676034146 
H2    H     0.44231060980205 0.59100355964142 0.69868280033689 
H3    H     0.20116886984615 0.67479032982380 0.81444520967930 
H4    H     0.13104786994406 0.56476668966629 0.96581752977358 
H5    H     0.17475552978967 0.38913703030532 0.06846579987650 
H6    H     0.83577619953955 0.45544423025263 0.79541920032677 
H7    H     0.34138689999387 0.19718504020719 0.10389495026337 
H8    H     0.58049619931035 0.05413551991877 0.06975095024041 
H9    H     0.86074744053415 0.99064008986070 0.97759909010183 
H10   H     0.13028269027158 0.40667537991918 0.72282235980606 
H11   H     0.11177870002203 0.04636149002295 0.86576918027672 
H12   H     0.27071142036753 0.19784664975801 0.75281115006398 
C1    C     0.52466641059094 0.45103732020741 0.79065190009179 
C2    C     0.49840522017859 0.39400957015625 0.87956814980409 
C3    C     0.61174539996398 0.29717155024443 0.90976823008980 
C4    C     0.41930897009980 0.54938919962082 0.76760999978526 
C5    C     0.34461846991322 0.43108720006430 0.94050482983013 
C6    C     0.79003793979900 0.27418590975854 0.86723009983530 
C7    C     0.54562127965594 0.22211071014237 0.98790507024354 
C8    C     0.28096255055179 0.59544904991903 0.83227836982318 
C9    C     0.24240234996442 0.53454787990005 0.91640124015345 
C10   C     0.87798418025323 0.16060178998138 0.89103992966925 
C11   C     0.29261553011382 0.36043386022018 0.02325079978510 
C12   C     0.88939731971727 0.36200017985464 0.80717581970034 
C13   C     0.38518129965226 0.25557851971788 0.04337096998787 
C14   C     0.63949403997534 0.11262631031356 0.01200656020853 
C15   C     0.79533109007510 0.07856626976210 0.96203353989915 
C16   C     0.05793892019001 0.33497347018259 0.76665550983373 
C17   C     0.04933978012546 0.13423323036235 0.84730594977848 
C18   C     0.13804669056714 0.21872801956498 0.78483069013665 
