data_stdin
_audit_creation_method 'critic2'
_audit_creation_date 2023-8-11
_chemical_formula_sum 'C18 H12'
_cell_formula_units_Z 4
_cell_length_a        15.4468793289
_cell_length_b        14.2504397538
_cell_length_c         5.4885816821
_cell_angle_alpha        89.9996
_cell_angle_beta        90.0004
_cell_angle_gamma        90.0035
_cell_volume          1208.173070
_space_group_crystal_system orthorhombic
_space_group_IT_number 33
_space_group_name_H-M_alt 'Pna2_1'
_space_group_name_Hall 'P 2c -2n'
loop_
_symmetry_equiv_pos_site_id
_symmetry_equiv_pos_as_xyz
 1 'x,y,z'
 2 '-x,-y,-1/2+z'
 3 '-1/2-x,-1/2+y,-1/2+z'
 4 '-1/2+x,-1/2-y,z'
loop_
_atom_site_label
_atom_site_type_symbol
_atom_site_fract_x
_atom_site_fract_y
_atom_site_fract_z
H1    H     0.85080634997717 0.16342039032186 0.99314001017352 
H2    H     0.76886830998708 0.05872700026652 0.26187622020949 
H3    H     0.83515044005881 0.00127155008756 0.65246909963179 
H4    H     0.98680416026713 0.04398587030700 0.74879399047396 
H5    H     0.12266480980765 0.11529409030660 0.63541759075729 
H6    H     0.84015563985810 0.30145807989063 0.04362161037204 
H7    H     0.21085915988710 0.20765417968050 0.34212131015975 
H8    H     0.22316722014641 0.30072462985603 0.97970668037187 
H9    H     0.15844703008807 0.38512933011433 0.63058595009027 
H10   H     0.77766456018894 0.39770489027362 0.72004690935731 
H11   H     0.03117075975659 0.44409228009243 0.41900997937126 
H12   H     0.87243629989674 0.46568830012507 0.39375496996702 
C1    C     0.87828644023440 0.14349608990449 0.16743601014119 
C2    C     0.96233470968716 0.17591799984150 0.22807920934207 
C3    C     0.01037160025673 0.24298224997626 0.08309920035551 
C4    C     0.83320307026042 0.08216679972711 0.31622527016353 
C5    C     0.00312591986333 0.13361492030700 0.43530865033257 
C6    C     0.97150880977165 0.30554107988826 0.90592618046608 
C7    C     0.10137303997206 0.24777396027948 0.11729806927189 
C8    C     0.87063373998928 0.04894831995727 0.53380798053498 
C9    C     0.95506277029860 0.07311477024517 0.58876051060488 
C10   C     0.02604085991327 0.35410535029891 0.73605957060473 
C11   C     0.09319738029762 0.14810703025337 0.47656654016139 
C12   C     0.88189856003090 0.32685914002052 0.89898959920277 
C13   C     0.14128947993510 0.19941252019205 0.31562721931880 
C14   C     0.15344039003229 0.30131092970940 0.95352708042849 
C15   C     0.11769440996150 0.34883936971979 0.76253497954177 
C16   C     0.84689594001996 0.38314313980310 0.71869455073101 
C17   C     0.98871065002563 0.40981569012430 0.55027125067259 
C18   C     0.90015829010025 0.42254588980920 0.53736179055133 
