data_stdin
_audit_creation_method 'critic2'
_audit_creation_date 2023-8-11
_chemical_formula_sum 'C18 H12'
_cell_formula_units_Z 8
_cell_length_a        29.9761188915
_cell_length_b         4.0074206688
_cell_length_c        20.5771152512
_cell_angle_alpha        89.9899
_cell_angle_beta        67.3205
_cell_angle_gamma        89.9955
_cell_volume          2280.730495
_space_group_crystal_system triclinic
_space_group_IT_number 2
_space_group_name_H-M_alt 'P-1'
_space_group_name_Hall '-P 1'
loop_
_symmetry_equiv_pos_site_id
_symmetry_equiv_pos_as_xyz
 1 'x,y,z'
 2 '-x,-y,-z'
 3 '-1/2+x,-1/2+y,z'
 4 '-1/2-x,-1/2-y,-z'
loop_
_atom_site_label
_atom_site_type_symbol
_atom_site_fract_x
_atom_site_fract_y
_atom_site_fract_z
H1    H     0.06447268659222 0.08235799277864 0.17702293863450 
H2    H     0.93555492703413 0.08276182890704 0.32294386021860 
H3    H     0.07498177289050 0.16899725866522 0.05616801047680 
H4    H     0.92505488559974 0.16924966320143 0.44379451000959 
H5    H     0.15484803198311 0.35403338950985 0.96604721501491 
H6    H     0.84518260319091 0.35401882088311 0.53392942904048 
H7    H     0.22200720920859 0.47849674351114 0.00476330834552 
H8    H     0.77800878586418 0.47841094338653 0.49522946099323 
H9    H     0.25499254366063 0.50947069095358 0.09355753353302 
H10   H     0.74500853373242 0.50938289577363 0.40644934501283 
H11   H     0.06492105020866 0.70239740689952 0.22432040188260 
H12   H     0.93513229639927 0.70284715753969 0.27567351495168 
H13   H     0.24370093403634 0.47964385557676 0.21912503041127 
H14   H     0.75627886211449 0.47952857795068 0.28089324449829 
H15   H     0.19548423823490 0.39151690928228 0.33842440027485 
H16   H     0.80447078589304 0.39130401724080 0.16159742766097 
H17   H     0.12014731642536 0.19327182674125 0.43383139624423 
H18   H     0.87979243957806 0.19301341133596 0.06618144331714 
H19   H     0.99372761442500 0.49009280051483 0.32003526917122 
H20   H     0.00630893497505 0.49051446678536 0.17995137104341 
H21   H     0.04344252559396 0.92007406980841 0.47095418909848 
H22   H     0.95650839062438 0.91996068152285 0.02904460443587 
H23   H     0.98021077769454 0.61209225465033 0.44518221947194 
H24   H     0.01977208126727 0.61218425355057 0.05480107491596 
C1    C     0.10018811477769 0.14996969810820 0.13986656518452 
C2    C     0.89983772775848 0.15024907855795 0.36010770500776 
C3    C     0.13871600494836 0.19151542083779 0.16312374604373 
C4    C     0.86130149698490 0.19170528851412 0.33686191638971 
C5    C     0.13451468406622 0.13741518314291 0.23515133350503 
C6    C     0.86549306947469 0.13757322580753 0.26484314772721 
C7    C     0.10587977614183 0.20592523555592 0.07080028127031 
C8    C     0.89415101656102 0.20613080814885 0.42917052776574 
C9    C     0.18304886838086 0.32309318716898 0.11222236115347 
C10   C     0.81696512502975 0.32316203485629 0.38776938694663 
C11   C     0.09374277823590 0.97819343110314 0.29002776043282 
C12   C     0.90626289250366 0.97837251019323 0.20996709651409 
C13   C     0.17197848237205 0.26588738290038 0.25428338454838 
C14   C     0.82801201961531 0.26590805263649 0.24572333906135 
C15   C     0.15041771958344 0.31421275690513 0.02052463622203 
C16   C     0.84960988148100 0.31427288309480 0.47945361976797 
C17   C     0.18791615951903 0.37821918841059 0.04185323583475 
C18   C     0.81210318033761 0.37823062518784 0.45813461672993 
C19   C     0.08832489194779 0.01270344496323 0.36209785683653 
C20   C     0.91165506392584 0.01273062592858 0.13790161045390 
C21   C     0.22153704786208 0.41312754504290 0.13312658149423 
C22   C     0.77846524253971 0.41311167694103 0.36687729165284 
C23   C     0.05894728591851 0.77622448305519 0.27764144899336 
C24   C     0.94107751914302 0.77653705480137 0.22234969497488 
C25   C     0.21539124870580 0.39472105664234 0.20221818712561 
C26   C     0.78459946268744 0.39468434415913 0.29779157699913 
C27   C     0.16651853300137 0.27848575475910 0.32627519139359 
C28   C     0.83344977558870 0.27837947025721 0.17373886427917 
C29   C     0.12519300486998 0.16928140466616 0.37870186782489 
C30   C     0.87476845872013 0.16916426593190 0.12130698881449 
C31   C     0.01895940172247 0.64940284440520 0.33199362333384 
C32   C     0.98105963391810 0.64970327328005 0.16799279888491 
C33   C     0.04687847122398 0.88357650040640 0.41679078498314 
C34   C     0.95309405600524 0.88358852301131 0.08320430253957 
C35   C     0.01183063471349 0.71153710555403 0.40256652971883 
C36   C     0.98815647769152 0.71164625509980 0.09742089819933 
