data_stdin
_audit_creation_method 'critic2'
_audit_creation_date 2023-8-11
_chemical_formula_sum 'C18 H12'
_cell_formula_units_Z 2
_cell_length_a        10.4452292644
_cell_length_b         8.3967245034
_cell_length_c         7.8547523738
_cell_angle_alpha        90.6569
_cell_angle_beta       110.5192
_cell_angle_gamma       108.5192
_cell_volume           605.911300
_space_group_crystal_system triclinic
_space_group_IT_number 2
_space_group_name_H-M_alt 'P-1'
_space_group_name_Hall '-P 1'
loop_
_symmetry_equiv_pos_site_id
_symmetry_equiv_pos_as_xyz
 1 'x,y,z'
 2 '-x,-y,-z'
loop_
_atom_site_label
_atom_site_type_symbol
_atom_site_fract_x
_atom_site_fract_y
_atom_site_fract_z
H1    H     0.33217147015114 0.35105234996110 0.62137164025010 
H2    H     0.06800052997499 0.21901119981721 0.50473236056331 
H3    H     0.93964845991280 0.98415384986479 0.24192005012324 
H4    H     0.08298219042420 0.89682605050861 0.08892556959001 
H5    H     0.30982161004295 0.92595610017306 0.05784686045774 
H6    H     0.45938277936278 0.27574580970761 0.82258042943098 
H7    H     0.57608547991410 0.07481655975928 0.15424214960180 
H8    H     0.79919425030395 0.27372686041807 0.35486216034076 
H9    H     0.94647918966776 0.48360504946162 0.63713812937264 
H10   H     0.61429121018673 0.45727179968838 0.11164572998739 
H11   H     0.96651743994166 0.62475782054573 0.91838906003744 
H12   H     0.86747174952730 0.64851038984130 0.15904920938753 
C1    C     0.28078465985942 0.24309790997126 0.51414761016956 
C2    C     0.36735834034997 0.18744541045168 0.43957977971622 
C3    C     0.52517521966447 0.25496275051572 0.51017152986278 
C4    C     0.13063311069839 0.17133825064305 0.44500852038572 
C5    C     0.29114974022160 0.06461645973757 0.27721639024862 
C6    C     0.61549999023388 0.35419813962130 0.68922733032591 
C7    C     0.59641254985240 0.22041531959856 0.39721154987681 
C8    C     0.05785581989069 0.04106008019778 0.29483014952735 
C9    C     0.13771603983211 0.99117980056177 0.21107686994579 
C10   C     0.76676010993571 0.44388479023077 0.72844994999465 
C11   C     0.36967083955863 0.02214118989988 0.17849507995170 
C12   C     0.56682784025441 0.35914050020512 0.83607721944504 
C13   C     0.51622737048209 0.10252875954429 0.23282937054648 
C14   C     0.74950044980263 0.30241721012281 0.44689482012784 
C15   C     0.83067351981963 0.41651197975856 0.60246597028689 
C16   C     0.65589931992003 0.46063684974523 0.00219445047623 
C17   C     0.85361660038469 0.55312831061164 0.89589546011297 
C18   C     0.79901896999396 0.56460849942936 0.03037781997204 
