data_stdin
_audit_creation_method 'critic2'
_audit_creation_date 2023-8-11
_chemical_formula_sum 'C18 H12'
_cell_formula_units_Z 2
_cell_length_a         7.3896573573
_cell_length_b        10.7951052310
_cell_length_c         8.1426006319
_cell_angle_alpha        67.7624
_cell_angle_beta        90.5107
_cell_angle_gamma        87.1467
_cell_volume           600.224265
_space_group_crystal_system triclinic
_space_group_IT_number 2
_space_group_name_H-M_alt 'P-1'
_space_group_name_Hall '-P 1'
loop_
_symmetry_equiv_pos_site_id
_symmetry_equiv_pos_as_xyz
 1 'x,y,z'
 2 '-x,-y,-z'
loop_
_atom_site_label
_atom_site_type_symbol
_atom_site_fract_x
_atom_site_fract_y
_atom_site_fract_z
H1    H     0.34977348981746 0.92551412976842 0.08671141983272 
H2    H     0.32002596988197 0.70812807950226 0.06515433029262 
H3    H     0.18657439007276 0.52079836966947 0.31235874038688 
H4    H     0.10686583036941 0.55255352960288 0.58960667002030 
H5    H     0.10077980998838 0.68656609958034 0.77173978056216 
H6    H     0.15039089941866 0.07256601033302 0.01111311994973 
H7    H     0.18648213054395 0.89093768976051 0.81467484948792 
H8    H     0.31153454937097 0.10646244014452 0.70781180968406 
H9    H     0.39837501022969 0.31075401971842 0.46164537061514 
H10   H     0.18169456005208 0.28986545001538 0.77215373978132 
H11   H     0.39407511014795 0.44476595982516 0.14498711044561 
H12   H     0.31559140010164 0.47672621996644 0.83421656038493 
C1    C     0.28636941996369 0.84747395965091 0.19380679039294 
C2    C     0.23218746029333 0.87193221028720 0.34615027969854 
C3    C     0.24955743947973 0.99886430944229 0.36536917057667 
C4    C     0.27222045049746 0.72364443034322 0.18233820025350 
C5    C     0.17498855986499 0.75958856981675 0.49449656938626 
C6    C     0.26739285012768 0.12581129003075 0.21925391983918 
C7    C     0.24933421019785 0.99879228046687 0.53958512947697 
C8    C     0.20109412979402 0.61735638004103 0.32305942978775 
C9    C     0.15523693049292 0.63539551047420 0.47688072974555 
C10   C     0.32476625941021 0.23797974042710 0.25610930942649 
C11   C     0.15004751985727 0.77105511019118 0.66167167980804 
C12   C     0.21391094938790 0.15041711003506 0.04126280057316 
C13   C     0.19561390971667 0.88443421022865 0.68477484058909 
C14   C     0.30284973990480 0.11306123001758 0.57117497995982 
C15   C     0.34899364066312 0.22640990961687 0.43528787048771 
C16   C     0.22897664929132 0.27418379015288 0.90589815988258 
C17   C     0.34552554022421 0.36208814052053 0.11433325966412 
C18   C     0.30038872985581 0.38023935020162 0.94148327018763 
