data_stdin
_audit_creation_method 'critic2'
_audit_creation_date 2023-8-11
_chemical_formula_sum 'C18 H12'
_cell_formula_units_Z 4
_cell_length_a         7.2089714548
_cell_length_b        20.1461369216
_cell_length_c        11.2173550136
_cell_angle_alpha        89.9981
_cell_angle_beta        46.6119
_cell_angle_gamma        90.0205
_cell_volume          1183.915449
_space_group_crystal_system triclinic
_space_group_IT_number 2
_space_group_name_H-M_alt 'P-1'
_space_group_name_Hall '-P 1'
loop_
_symmetry_equiv_pos_site_id
_symmetry_equiv_pos_as_xyz
 1 'x,y,z'
 2 '-x,-y,-z'
loop_
_atom_site_label
_atom_site_type_symbol
_atom_site_fract_x
_atom_site_fract_y
_atom_site_fract_z
H1    H     0.03663868967246 0.22480188002863 0.09314702012570 
H2    H     0.96322326928416 0.72472081020064 0.40685152061125 
H3    H     0.17362166059841 0.11554459024029 0.96289649995939 
H4    H     0.82619199927487 0.61543442007328 0.53717509010333 
H5    H     0.90285216020093 0.01516193989646 0.12138058950421 
H6    H     0.09690517987660 0.51511174020777 0.37875706959167 
H7    H     0.50969728896862 0.02623688002973 0.41518019047944 
H8    H     0.49014706062958 0.52625490985970 0.08499246002104 
H9    H     0.23781531007683 0.09109862003713 0.66671017031251 
H10   H     0.76230792922897 0.59117960977054 0.83343876025507 
H11   H     0.78993926013313 0.28567445979402 0.10919998986822 
H12   H     0.20995599912840 0.78566859002597 0.39080820029676 
H13   H     0.15427655987610 0.19602698016865 0.81134890956035 
H14   H     0.84588528103025 0.69610125976985 0.68870120964154 
H15   H     0.26044967997805 0.30961073977146 0.80830757972116 
H16   H     0.73974396051341 0.80964814978929 0.69163104966082 
H17   H     0.46953156888628 0.41545764003579 0.66121014041583 
H18   H     0.53067673978186 0.91546178984272 0.83863687044940 
H19   H     0.91198697999385 0.39550332017728 0.98276471964300 
H20   H     0.08808721966102 0.89548712009319 0.51711122023443 
H21   H     0.69907737959265 0.48191232004597 0.41318580998093 
H22   H     0.30098038982689 0.98187355019046 0.08661799025076 
H23   H     0.88328339895223 0.49469481006339 0.13075101046834 
H24   H     0.11678139029978 0.99466475023582 0.36906714976110 
C1    C     0.91379076993055 0.18230166018128 0.16333035002882 
C2    C     0.08610108988409 0.68224938989914 0.33671287037462 
C3    C     0.68692920990011 0.19070634016080 0.33095315972500 
C4    C     0.31303785996201 0.69069634010243 0.16910224028050 
C5    C     0.60239866068008 0.25408241000085 0.41506908975547 
C6    C     0.39762960939219 0.75408497009634 0.08493270055675 
C7    C     0.99286492932390 0.12038176010253 0.08986030030122 
C8    C     0.00697520074434 0.62031375013504 0.41021914981751 
C9    C     0.54839785018229 0.13192309010499 0.42432498953747 
C10   C     0.45158707960225 0.63194155985745 0.07578314012060 
C11   C     0.68191942989533 0.31807019005698 0.33412883952808 
C12   C     0.31811421929559 0.81806244014654 0.16581949013787 
C13   C     0.42908130005966 0.25349709997194 0.58898429948668 
C14   C     0.57100936039558 0.75352188984693 0.91101408953185 
C15   C     0.84364607074111 0.06377636987294 0.17953885974469 
C16   C     0.15618905021541 0.56373865984043 0.32058252041620 
C17   C     0.62468433126566 0.06979103992068 0.34384095937716 
C18   C     0.37521498898092 0.56979370997348 0.15629323048245 
C19   C     0.63829716950845 0.37617833979185 0.42451362988184 
C20   C     0.36180203015977 0.87616891993114 0.07537748032657 
C21   C     0.34602787995892 0.13578422997307 0.59833272988539 
C22   C     0.65404724965085 0.63583786003592 0.90178030988858 
C23   C     0.78019097986772 0.32760381980051 0.17416471947964 
C24   C     0.21979465993931 0.82759412978149 0.32578792980270 
C25   C     0.29830592024854 0.19382858016418 0.67789397024333 
C26   C     0.70180504996542 0.69387926999552 0.82215853946514 
C27   C     0.38336479090347 0.31260577977444 0.67592845939550 
C28   C     0.61678521991677 0.81262840983608 0.82401286990729 
C29   C     0.49603952995558 0.37120881014969 0.59527154038522 
C30   C     0.50412762073503 0.87121336985369 0.90460997965059 
C31   C     0.84700152089892 0.38993632020519 0.10316717954439 
C32   C     0.15304728979257 0.88992158006209 0.39672048025221 
C33   C     0.72272333084951 0.43872607022798 0.34546372955824 
C34   C     0.27735362998841 0.93870390979173 0.15438586945958 
C35   C     0.82562027994619 0.44578839983525 0.18738967000004 
C36   C     0.17445542934637 0.94576636015740 0.31245548017799 
