data_stdin
_audit_creation_method 'critic2'
_audit_creation_date 2023-8-11
_chemical_formula_sum 'C18 H12'
_cell_formula_units_Z 4
_cell_length_a        16.5087573446
_cell_length_b         3.9126695850
_cell_length_c        19.1106667183
_cell_angle_alpha        90.0061
_cell_angle_beta        70.7763
_cell_angle_gamma        89.9959
_cell_volume          1165.590388
_space_group_crystal_system monoclinic
_space_group_IT_number 14
_space_group_name_H-M_alt 'P2_1/c'
_space_group_name_Hall '-P 2ybc'
loop_
_symmetry_equiv_pos_site_id
_symmetry_equiv_pos_as_xyz
 1 'x,y,z'
 2 '-x,-y,-z'
 3 '-x,-1/2+y,-1/2-z'
 4 'x,-1/2-y,-1/2+z'
loop_
_atom_site_label
_atom_site_type_symbol
_atom_site_fract_x
_atom_site_fract_y
_atom_site_fract_z
H1    H     0.61305160971682 0.84043964948137 0.46901565016706 
H2    H     0.47448556021020 0.70432500030873 0.55815426002751 
H3    H     0.45939907003355 0.57460338919345 0.69044441984561 
H4    H     0.58954262014720 0.56071921928302 0.72755103015117 
H5    H     0.74193089014998 0.58912033046160 0.69838305006500 
H6    H     0.66293837994856 0.26613883072631 0.43795838988789 
H7    H     0.88701669011590 0.63851707940455 0.60516929995978 
H8    H     0.97889356014856 0.73416653952093 0.48310113979600 
H9    H     0.00562542001701 0.90046875016451 0.35257469021036 
H10   H     0.69482842011869 0.47578008950334 0.31152925992071 
H11   H     0.95452559012803 0.11984493933191 0.25761859987394 
H12   H     0.83949083995014 0.38765227045090 0.21779566993259 
C1    C     0.60908006005296 0.80028725092353 0.52616726984379 
C2    C     0.68472793977904 0.81263831026182 0.54595177012703 
C3    C     0.76960746024027 0.88781748941354 0.49442691009602 
C4    C     0.53002394006124 0.71731755914617 0.57674951008172 
C5    C     0.67593545991633 0.71191397066956 0.62036196982300 
C6    C     0.78685662008515 0.03472860073500 0.42116493996573 
C7    C     0.84130548010669 0.79964666872459 0.51631510993138 
C8    C     0.52158022987735 0.64088485046710 0.65068725979989 
C9    C     0.59402901012516 0.63570849969152 0.67148630974387 
C10   C     0.87239540009019 0.02265063088577 0.36927644007482 
C11   C     0.75013422019938 0.66557041952294 0.64166099997165 
C12   C     0.72509147996027 0.21008280914170 0.39774100999884 
C13   C     0.82997265037418 0.69469963037810 0.59041629977974 
C14   C     0.92606060016429 0.80916486038833 0.46425801981691 
C15   C     0.94090137021494 0.90290472012127 0.39242940995554 
C16   C     0.74364488983182 0.33482490013461 0.32646985005768 
C17   C     0.88927459999832 0.14292394921402 0.29605138991231 
C18   C     0.82591255988940 0.29223486914982 0.27401761998858 
