data_stdin
_audit_creation_method 'critic2'
_audit_creation_date 2023-8-11
_chemical_formula_sum 'C18 H12'
_cell_formula_units_Z 4
_cell_length_a         8.1939344666
_cell_length_b         7.6555221200
_cell_length_c        20.1061577224
_cell_angle_alpha        90.0001
_cell_angle_beta        69.3232
_cell_angle_gamma        90.0000
_cell_volume          1179.996532
_space_group_crystal_system monoclinic
_space_group_IT_number 14
_space_group_name_H-M_alt 'P2_1/c'
_space_group_name_Hall '-P 2ybc'
loop_
_symmetry_equiv_pos_site_id
_symmetry_equiv_pos_as_xyz
 1 'x,y,z'
 2 '-x,-y,-z'
 3 '-x,-1/2+y,-1/2-z'
 4 'x,-1/2-y,-1/2+z'
loop_
_atom_site_label
_atom_site_type_symbol
_atom_site_fract_x
_atom_site_fract_y
_atom_site_fract_z
H1    H     0.67583752001000 0.35900294986822 0.46126911988569 
H2    H     0.69647069060300 0.23497027943229 0.56989313993784 
H3    H     0.44180465033433 0.08607264934917 0.65804658007194 
H4    H     0.16086945033537 0.07587683967866 0.63696922993466 
H5    H     0.98499207952534 0.14196351033621 0.56634713992110 
H6    H     0.74329918948361 0.24309396949994 0.37060720994669 
H7    H     0.94811086985924 0.30272710935559 0.46563825024295 
H8    H     0.05823484066919 0.48796490946945 0.36477596984547 
H9    H     0.30421728975087 0.62287977951967 0.26804799025468 
H10   H     0.97986470995549 0.34863759036166 0.26553726024099 
H11   H     0.61236926004538 0.64347889015423 0.20232384996608 
H12   H     0.91714684010924 0.56099742028014 0.18221785013875 
C1    C     0.56640493006751 0.28496322948301 0.49632034983553 
C2    C     0.41204664035700 0.27132761034235 0.47997181981492 
C3    C     0.39414984999947 0.34118152062594 0.41580593995148 
C4    C     0.57719350039390 0.21814071039055 0.55844985988301 
C5    C     0.26216023955686 0.19776827979214 0.53386630998292 
C6    C     0.53856589072878 0.39405356984742 0.35276936977119 
C7    C     0.22237042972834 0.36378479003606 0.41516171978497 
C8    C     0.43253549043428 0.13642013021789 0.60892131975788 
C9    C     0.27714630977347 0.12975280988394 0.59690334014172 
C10   C     0.50336198034862 0.49961855961383 0.30036038009311 
C11   C     0.09644993974288 0.20208213021564 0.52566387021636 
C12   C     0.71397656033053 0.33911368965991 0.33672846006612 
C13   C     0.07648145963539 0.28877344056258 0.46972115994326 
C14   C     0.19255616028010 0.46524218969033 0.36095737977635 
C15   C     0.32788794000959 0.53842675032865 0.30729566985217 
C16   C     0.84766090062121 0.39667418981099 0.27660033991606 
C17   C     0.64248599991740 0.56009182965838 0.24028547022880 
C18   C     0.81258866972156 0.51263005010751 0.22896050996464 
