data_stdin
_audit_creation_method 'critic2'
_audit_creation_date 2023-8-11
_chemical_formula_sum 'C18 H12'
_cell_formula_units_Z 4
_cell_length_a        15.4563357829
_cell_length_b         3.8749948517
_cell_length_c        20.2181579296
_cell_angle_alpha        89.9947
_cell_angle_beta        75.8643
_cell_angle_gamma        90.0061
_cell_volume          1174.263755
_space_group_crystal_system monoclinic
_space_group_IT_number 14
_space_group_name_H-M_alt 'P2_1/c'
_space_group_name_Hall '-P 2ybc'
loop_
_symmetry_equiv_pos_site_id
_symmetry_equiv_pos_as_xyz
 1 'x,y,z'
 2 '-x,-y,-z'
 3 '-x,-1/2+y,-1/2-z'
 4 'x,-1/2-y,-1/2+z'
loop_
_atom_site_label
_atom_site_type_symbol
_atom_site_fract_x
_atom_site_fract_y
_atom_site_fract_z
H1    H     0.11261971974335 0.71965016951273 0.20954997000783 
H2    H     0.99174954014699 0.76777561049469 0.31087303977939 
H3    H     0.01259665981828 0.08535339093953 0.41381985995572 
H4    H     0.16206127019810 0.32772926956546 0.41266272985327 
H5    H     0.31768192020866 0.41066027949275 0.35793833006075 
H6    H     0.13330619011838 0.03593543975403 0.13270570025354 
H7    H     0.44718585013497 0.29972265878433 0.26030280025060 
H8    H     0.51068540979537 0.06904916940143 0.15042483012547 
H9    H     0.49646589991574 0.79052940088583 0.04340626008808 
H10   H     0.12425671003382 0.84334173068307 0.01978397017179 
H11   H     0.40534223970681 0.62804189899559 0.96694581994932 
H12   H     0.25904632006639 0.61420802107546 0.93682844001961 
C1    C     0.12326812989822 0.87300186972049 0.25170584022566 
C2    C     0.20793297015075 0.02476647982024 0.24759184997368 
C3    C     0.28162652968660 0.00815433055454 0.18748345014768 
C4    C     0.05481190985824 0.89429640902405 0.31009894990712 
C5    C     0.22180415976318 0.17776779045304 0.30884662992110 
C6    C     0.27325072001523 0.91226165082971 0.11993797984321 
C7    C     0.36830429996735 0.08511015943764 0.19547101002053 
C8    C     0.06724793003125 0.06691982906027 0.36826845023539 
C9    C     0.15007640018748 0.20206596042407 0.36755349989761 
C10   C     0.35192348989186 0.81812438958603 0.06909327976976 
C11   C     0.30877596983562 0.28957804022231 0.31140422001564 
C12   C     0.19234934005264 0.92714086125602 0.09879805012788 
C13   C     0.37983194031054 0.23158218992793 0.25743924988801 
C14   C     0.44519427028319 0.01077970020088 0.14206737009599 
C15   C     0.43747464972135 0.86121509092608 0.08271230006518 
C16   C     0.18750481989832 0.82394913094749 0.03431066013215 
C17   C     0.34475440977113 0.70437886005849 0.00415968993505 
C18   C     0.26367069032407 0.70086151974259 0.98701824975868 
