data_stdin
_audit_creation_method 'critic2'
_audit_creation_date 2023-8-11
_chemical_formula_sum 'C18 H12'
_cell_formula_units_Z 4
_cell_length_a        10.0224237897
_cell_length_b         3.8663881821
_cell_length_c        30.5521066691
_cell_angle_alpha        89.9802
_cell_angle_beta        80.6399
_cell_angle_gamma        90.0088
_cell_volume          1168.148868
_space_group_crystal_system triclinic
_space_group_IT_number 2
_space_group_name_H-M_alt 'P-1'
_space_group_name_Hall '-P 1'
loop_
_symmetry_equiv_pos_site_id
_symmetry_equiv_pos_as_xyz
 1 'x,y,z'
 2 '-x,-y,-z'
loop_
_atom_site_label
_atom_site_type_symbol
_atom_site_fract_x
_atom_site_fract_y
_atom_site_fract_z
H1    H     0.06751936956948 0.51678334972312 0.70328140011318 
H2    H     0.93241171991086 0.01675247010773 0.79672639012006 
H3    H     0.11912036001942 0.69631832116049 0.77502131986449 
H4    H     0.88077791996920 0.19619898106394 0.72497227010858 
H5    H     0.33179849980703 0.02321607096328 0.78009359001399 
H6    H     0.66814202013203 0.52315637048663 0.71988277995860 
H7    H     0.49917823026729 0.11501416904227 0.71222070999239 
H8    H     0.50081911034983 0.61505531986134 0.78775626011316 
H9    H     0.57381283031823 0.03663853028478 0.63372635009274 
H10   H     0.42622675969052 0.53676027122257 0.86626353012859 
H11   H     0.96587803005281 0.80273133932730 0.66796295005943 
H12   H     0.03411423023235 0.30280835066443 0.83201077985940 
H13   H     0.53833697036882 0.78645274067523 0.56179804006551 
H14   H     0.46172010002248 0.28660588878157 0.93821078004225 
H15   H     0.40245534998016 0.48612262110106 0.51720619996983 
H16   H     0.59759216972048 0.98621160121838 0.98281881000037 
H17   H     0.18282941952763 0.25089013889568 0.50408034995814 
H18   H     0.81719563021298 0.75086418003009 0.99594435985919 
H19   H     0.74682249002503 0.65172044027681 0.64859846997401 
H20   H     0.25317652043288 0.15179695097107 0.85137313993623 
H21   H     0.94180697034954 0.20576615945829 0.52603895995299 
H22   H     0.05820922994992 0.70568316892137 0.97397043988243 
H23   H     0.73113010961777 0.33523525873811 0.57842465995782 
H24   H     0.26887730963889 0.83519780953805 0.92156284990848 
C1    C     0.15816721974498 0.66776515079756 0.70413006001666 
C2    C     0.84178112991930 0.16774321078784 0.79586733990394 
C3    C     0.24673823003324 0.74026293905601 0.66406413996080 
C4    C     0.75324497986654 0.24029207010695 0.83593060009698 
C5    C     0.21900415999485 0.64870143125329 0.62037898990252 
C6    C     0.78099759968707 0.14874682071307 0.87962090010811 
C7    C     0.18851778994418 0.76380534933550 0.74499445015632 
C8    C     0.81141394024081 0.26374451969768 0.75499654985189 
C9    C     0.37529698051988 0.88935618926819 0.66810080985919 
C10   C     0.62470051978180 0.38940289120168 0.83188867015189 
C11   C     0.08604035976023 0.56537294964543 0.61033436001606 
C12   C     0.91396108958283 0.06539617059737 0.88966259997709 
C13   C     0.32959329021377 0.64294969083036 0.58485199012159 
C14   C     0.67042923955431 0.14302313934329 0.91515536991117 
C15   C     0.30959619960290 0.93895987942652 0.74806254001032 
C16   C     0.69035487962569 0.43892074011557 0.75191970989586 
C17   C     0.40236689976795 0.99379174084584 0.71011663996958 
C18   C     0.59761555010400 0.49380601077836 0.78986523995478 
C19   C     0.07502433951786 0.41303447029111 0.56822825997736 
C20   C     0.92498498971013 0.91301073015109 0.93177726009484 
C21   C     0.47793125050060 0.91655237077490 0.63008118990368 
C22   C     0.52209630951115 0.41665144128352 0.86991243998990 
C23   C     0.96319079051289 0.65191814065489 0.63820304989867 
C24   C     0.03680655006022 0.15197416001604 0.86178096010546 
C25   C     0.45764037041538 0.78195155984355 0.59042817001701 
C26   C     0.54239682046535 0.28206638916878 0.90957571992062 
C27   C     0.31390354016161 0.49862862117985 0.54305412989369 
C28   C     0.68612823032127 0.99867892919773 0.95696272999182 
C29   C     0.19278400027580 0.37120943976696 0.53560329988640 
C30   C     0.80723654001558 0.87119773107825 0.96441316005199 
C31   C     0.83867848998970 0.57166473913116 0.62688996994550 
C32   C     0.16132128043585 0.07170606882564 0.87309120009650 
C33   C     0.94662131012258 0.32504606942739 0.55802455989994 
C34   C     0.05338894952759 0.82498896956823 0.94197727014604 
C35   C     0.82957210023100 0.39914216000742 0.58696477986438 
C36   C     0.17043292975375 0.89911981954563 0.91302558984690 
