data_stdin
_audit_creation_method 'critic2'
_audit_creation_date 2023-8-11
_chemical_formula_sum 'C18 H12'
_cell_formula_units_Z 4
_cell_length_a        15.8117751674
_cell_length_b         5.0194613420
_cell_length_c        15.9448403479
_cell_angle_alpha        90.0009
_cell_angle_beta        70.4841
_cell_angle_gamma        89.9989
_cell_volume          1192.784005
_space_group_crystal_system monoclinic
_space_group_IT_number 14
_space_group_name_H-M_alt 'P2_1/c'
_space_group_name_Hall '-P 2ybc'
loop_
_symmetry_equiv_pos_site_id
_symmetry_equiv_pos_as_xyz
 1 'x,y,z'
 2 '-x,-y,-z'
 3 '-x,-1/2+y,-1/2-z'
 4 'x,-1/2-y,-1/2+z'
loop_
_atom_site_label
_atom_site_type_symbol
_atom_site_fract_x
_atom_site_fract_y
_atom_site_fract_z
H1    H     0.82747254011176 0.24433214033148 0.77369598020331 
H2    H     0.93645720981445 0.59444381988218 0.77017272978931 
H3    H     0.99301461974780 0.89631680931484 0.63848770022038 
H4    H     0.94709433968321 0.81369842094340 0.50632273018507 
H5    H     0.87076112006696 0.54898072026003 0.42802015000796 
H6    H     0.69964147006787 0.31659149922545 0.82379943971765 
H7    H     0.77179873008511 0.16773512072351 0.42478463982830 
H8    H     0.67231846982138 0.82202237968247 0.49523285968899 
H9    H     0.58490480008576 0.56748001948350 0.62991752004109 
H10   H     0.60100978977480 0.09041337930646 0.95538662028048 
H11   H     0.53003087988405 0.51958169986726 0.78899134978600 
H12   H     0.51758748978339 0.67804244050780 0.93975499977746 
C1    C     0.84807912025479 0.37993782993649 0.71751332999659 
C2    C     0.81350796024059 0.34493620961484 0.64675867976803 
C3    C     0.74363439989952 0.15570874972109 0.64821193004760 
C4    C     0.91139658983792 0.57359139919598 0.71460525025142 
C5    C     0.85543040015658 0.49633279029897 0.56738763019117 
C6    C     0.68273502985616 0.03384453955242 0.72810175983904 
C7    C     0.73369664012031 0.08606658034910 0.56566164980890 
C8    C     0.94464855033873 0.74072038933971 0.63989255966747 
C9    C     0.91833406032527 0.69717572089968 0.56681091986792 
C10   C     0.62767097975272 0.81460239063503 0.71993150990828 
C11   C     0.83717013020824 0.43428506952030 0.48793766978334 
C12   C     0.66830643005492 0.13128640084934 0.81526068000696 
C13   C     0.78210144007293 0.22637453029303 0.48639617982461 
C14   C     0.67539711990228 0.87445581984258 0.56044519026322 
C15   C     0.62706990974992 0.73479626077252 0.63434659014794 
C16   C     0.61026029020042 0.00709651027323 0.88984581022765 
C17   C     0.56994118007963 0.68788029057587 0.79712698973068 
C18   C     0.56230874023616 0.77853230015897 0.88113595997705 
