data_stdin
_audit_creation_method 'critic2'
_audit_creation_date 2023-8-11
_chemical_formula_sum 'C18 H12'
_cell_formula_units_Z 4
_cell_length_a        10.9398257474
_cell_length_b        13.1896206901
_cell_length_c         9.1102350759
_cell_angle_alpha        90.0013
_cell_angle_beta        68.2685
_cell_angle_gamma        89.9996
_cell_volume          1221.110420
_space_group_crystal_system monoclinic
_space_group_IT_number 14
_space_group_name_H-M_alt 'P2_1/c'
_space_group_name_Hall '-P 2ybc'
loop_
_symmetry_equiv_pos_site_id
_symmetry_equiv_pos_as_xyz
 1 'x,y,z'
 2 '-x,-y,-z'
 3 '-x,-1/2+y,-1/2-z'
 4 'x,-1/2-y,-1/2+z'
loop_
_atom_site_label
_atom_site_type_symbol
_atom_site_fract_x
_atom_site_fract_y
_atom_site_fract_z
H1    H     0.98589429989128 0.94449060025880 0.30736268031995 
H2    H     0.12801772969368 0.82734685008606 0.38071833989024 
H3    H     0.04736566994330 0.74387158973905 0.64399936960774 
H4    H     0.82506093029738 0.78452200029820 0.83805229992188 
H5    H     0.62315297988623 0.88209226010117 0.91524536038136 
H6    H     0.86378519001406 0.89951227028434 0.20157807979871 
H7    H     0.49319852997559 0.02071660034194 0.85994718020162 
H8    H     0.46070797976726 0.14546128037821 0.68726111979283 
H9    H     0.51999499997085 0.22255375992202 0.42145637035983 
H10   H     0.88615307016649 0.95638948034860 0.93917136996895 
H11   H     0.63865714034629 0.21336364024515 0.13917135968312 
H12   H     0.77827122983192 0.11719012036569 0.90339409012263 
C1    C     0.94625561014409 0.90507366994693 0.41974761944288 
C2    C     0.81595145024265 0.92664117005288 0.52430492980250 
C3    C     0.72888032020584 0.99583586968651 0.48666389041763 
C4    C     0.02741202969021 0.84055081034843 0.46187468031598 
C5    C     0.77475314003455 0.88434695974272 0.68037126974088 
C6    C     0.74565795989688 0.02700210991689 0.32781161993175 
C7    C     0.61931123052131 0.03537212006884 0.61345258956574 
C8    C     0.98275049035749 0.79424025974648 0.61166188957878 
C9    C     0.85865198008896 0.81663588998131 0.71932388943601 
C10   C     0.67404717030882 0.11325233985985 0.30671545947045 
C11   C     0.65381565997532 0.91643037998428 0.79833263982399 
C12   C     0.81965834038818 0.97131083992854 0.19035777975383 
C13   C     0.58246216983953 0.99288522015313 0.76785065020238 
C14   C     0.54394604970329 0.11687048981215 0.58710390042350 
C15   C     0.57543695019122 0.15856078972500 0.44045839014012 
C16   C     0.83079743021391 0.00271475970716 0.04100353967814 
C17   C     0.69211422040524 0.14659693975857 0.15244267949845 
C18   C     0.76977559941476 0.09281525977888 0.02097320049532 
