data_stdin
_audit_creation_method 'critic2'
_audit_creation_date 2023-8-11
_chemical_formula_sum 'C18 H12'
_cell_formula_units_Z 4
_cell_length_a        15.6750783475
_cell_length_b         4.7651278256
_cell_length_c        16.7604103904
_cell_angle_alpha        89.9988
_cell_angle_beta        72.6665
_cell_angle_gamma        89.9982
_cell_volume          1195.045148
_space_group_crystal_system monoclinic
_space_group_IT_number 13
_space_group_name_H-M_alt 'P2/c'
_space_group_name_Hall '-P 2yc'
loop_
_symmetry_equiv_pos_site_id
_symmetry_equiv_pos_as_xyz
 1 'x,y,z'
 2 '-x,-y,-z'
 3 '-x,y,-1/2-z'
 4 'x,-y,-1/2+z'
loop_
_atom_site_label
_atom_site_type_symbol
_atom_site_fract_x
_atom_site_fract_y
_atom_site_fract_z
H1    H     0.90010809969690 0.43729625978949 0.03922391018034 
H2    H     0.02942728021010 0.25725448031220 0.07473757025827 
H3    H     0.01452950028003 0.85290966927923 0.17219168976772 
H4    H     0.86448721996924 0.63688387941141 0.23473496987604 
H5    H     0.70697200965211 0.61510315925495 0.25320350020232 
H6    H     0.86571504036393 0.33419209089987 0.94264693980129 
H7    H     0.57149418998563 0.82585918046517 0.23200092012091 
H8    H     0.49918111988073 0.18012956056109 0.17330477019065 
H9    H     0.50454232973086 0.57021924953709 0.07477317981390 
H10   H     0.86495201021469 0.68533169046202 0.83593579001726 
H11   H     0.58703367972500 0.85072066104221 0.95719167980807 
H12   H     0.72687683013401 0.95743013040798 0.84411545968905 
C1    C     0.89201653001186 0.25041332095334 0.07754135011954 
C2    C     0.80663847975585 0.12327784908589 0.10794894997819 
C3    C     0.72782142006711 0.21914547008033 0.08724408971878 
C4    C     0.96506691984773 0.15407162046125 0.09972013989079 
C5    C     0.79782822991146 0.90249621087604 0.16821893976893 
C6    C     0.72937315979771 0.40819381927910 0.01891648980817 
C7    C     0.64312810017938 0.12545697930618 0.13844547990382 
C8    C     0.95661241987922 0.92747995985134 0.15517521973102 
C9    C     0.87361228980937 0.80698885968682 0.18962206981371 
C10   C     0.64806553982002 0.54308712042730 0.01734953985658 
C11   C     0.71193132977218 0.78876097983222 0.20971517983867 
C12   C     0.80588173999723 0.45825287949131 0.94963583971976 
C13   C     0.63725533002622 0.90541892038011 0.19768758980882 
C14   C     0.56297915031349 0.25145132928002 0.13166096970097 
C15   C     0.56564335989310 0.46474685056084 0.07654278989671 
C16   C     0.80485028999949 0.65105522023430 0.88812315003942 
C17   C     0.64923968988467 0.74412069004102 0.95485645992977 
C18   C     0.72667544975615 0.80249552922239 0.89178801982640 
