data_stdin
_audit_creation_method 'critic2'
_audit_creation_date 2023-8-11
_chemical_formula_sum 'C18 H12'
_cell_formula_units_Z 4
_cell_length_a         7.5077773326
_cell_length_b        20.7347570401
_cell_length_c         8.9095823703
_cell_angle_alpha        89.9996
_cell_angle_beta        57.6222
_cell_angle_gamma        89.9982
_cell_volume          1171.346975
_space_group_crystal_system monoclinic
_space_group_IT_number 14
_space_group_name_H-M_alt 'P2_1/c'
_space_group_name_Hall '-P 2ybc'
loop_
_symmetry_equiv_pos_site_id
_symmetry_equiv_pos_as_xyz
 1 'x,y,z'
 2 '-x,-y,-z'
 3 '-x,-1/2+y,-1/2-z'
 4 'x,-1/2-y,-1/2+z'
loop_
_atom_site_label
_atom_site_type_symbol
_atom_site_fract_x
_atom_site_fract_y
_atom_site_fract_z
H1    H     0.48334860962390 0.74299733990744 0.78214701035953 
H2    H     0.55530984016738 0.85875175013614 0.74870101950423 
H3    H     0.37773752020778 0.93164245981732 0.01438282043038 
H4    H     0.09883225006544 0.88694538021067 0.30590847986434 
H5    H     0.87397558974116 0.79884591007990 0.48503894019491 
H6    H     0.64441170015198 0.68229723981466 0.84733829951898 
H7    H     0.75282250964986 0.68583169017334 0.50452513063588 
H8    H     0.79410502013903 0.58078093011712 0.38030578002628 
H9    H     0.00560819002557 0.49920488985232 0.14764091968696 
H10   H     0.86656304004026 0.59605358004541 0.64907611015160 
H11   H     0.33698839995968 0.46635537999111 0.88737296963239 
H12   H     0.71398455030007 0.48781961982710 0.65920524984272 
C1    C     0.40661928985100 0.77337907012107 0.89955467053564 
C2    C     0.25992734949576 0.74559721995575 0.06704742014336 
C3    C     0.21427194915507 0.67717191004908 0.09447545061125 
C4    C     0.44501248951543 0.83903724022149 0.88013670007648 
C5    C     0.13834355965527 0.78897230020526 0.21261373059244 
C6    C     0.35315956920952 0.62717099006271 0.97580173055797 
C7    C     0.02008168001254 0.65797663995381 0.24751746003003 
C8    C     0.34131889983689 0.88033398977688 0.02842857003796 
C9    C     0.18782625983284 0.85546775998309 0.19122405010286 
C10   C     0.27214095072263 0.56314134985730 0.99228519971320 
C11   C     0.96133268045429 0.76543632985942 0.37458091990582 
C12   C     0.57186445064872 0.63646061021230 0.85151175997711 
C13   C     0.89694895977062 0.70304918982860 0.38676131033979 
C14   C     0.94717103943983 0.59317994001854 0.26389639039109 
C15   C     0.06443339971618 0.54811679994291 0.13640230025429 
C16   C     0.69859346028863 0.58733347021354 0.74024549032395 
C17   C     0.40312960967465 0.51444658986517 0.87234594976389 
C18   C     0.61277155026040 0.52629841994079 0.74631070957625 
