data_stdin
_audit_creation_method 'critic2'
_audit_creation_date 2023-8-11
_chemical_formula_sum 'C18 H12'
_cell_formula_units_Z 4
_cell_length_a         8.4380037127
_cell_length_b        13.8845977400
_cell_length_c        11.1777709787
_cell_angle_alpha        90.0000
_cell_angle_beta        65.3647
_cell_angle_gamma        90.0000
_cell_volume          1190.371236
_space_group_crystal_system monoclinic
_space_group_IT_number 14
_space_group_name_H-M_alt 'P2_1/c'
_space_group_name_Hall '-P 2ybc'
loop_
_symmetry_equiv_pos_site_id
_symmetry_equiv_pos_as_xyz
 1 'x,y,z'
 2 '-x,-y,-z'
 3 '-x,-1/2+y,-1/2-z'
 4 'x,-1/2-y,-1/2+z'
loop_
_atom_site_label
_atom_site_type_symbol
_atom_site_fract_x
_atom_site_fract_y
_atom_site_fract_z
H1    H     0.08968502024330 0.32880911004458 0.04446254047506 
H2    H     0.91608428921445 0.30940123000944 0.28042551045637 
H3    H     0.05495019023184 0.32415663967436 0.43864562021900 
H4    H     0.37475215054278 0.34800839982807 0.35179137975700 
H5    H     0.65683103961197 0.36165096003890 0.17125643973366 
H6    H     0.12313295986029 0.45384336023259 0.95473039978450 
H7    H     0.84154462941344 0.35698352999662 0.93107399034565 
H8    H     0.87521671990963 0.35513968029609 0.70851692965934 
H9    H     0.75191866005343 0.36253143978513 0.54187704035836 
H10   H     0.01741162007819 0.48329781974921 0.78464538014539 
H11   H     0.50942800950870 0.39059188011985 0.48672970985798 
H12   H     0.20379869987041 0.44440157016267 0.54942737952804 
C1    C     0.15223321057424 0.33919565008071 0.11091765975013 
C2    C     0.33299018941677 0.36067442999472 0.05868454003909 
C3    C     0.44104063993232 0.37519768003965 0.91977059004069 
C4    C     0.05429374984575 0.32636754998191 0.24453126011162 
C5    C     0.41348982027811 0.35956927008234 0.14923147035066 
C6    C     0.37428413015381 0.39696935989566 0.82260022974294 
C7    C     0.62460852967903 0.36663492002120 0.87581780959367 
C8    C     0.13238740036956 0.33372506012908 0.33349431990054 
C9    C     0.30995454045240 0.34847586995094 0.28553520984586 
C10   C     0.48751350958787 0.38732253016555 0.68563241980421 
C11   C     0.59848886002163 0.36249373989235 0.10082049986141 
C12   C     0.20521347051736 0.43425174020958 0.85368246963388 
C13   C     0.70004891986243 0.36095678020076 0.96863268012830 
C14   C     0.73552374982509 0.36364675974744 0.73829932036512 
C15   C     0.66829113067233 0.36875738032110 0.64654139955008 
C16   C     0.14581775926327 0.45179389975333 0.75757448029887 
C17   C     0.42121798048758 0.40122651989831 0.58969177964620 
C18   C     0.25210814939846 0.43179392998081 0.62450901035653 
