data_stdin
_audit_creation_method 'critic2'
_audit_creation_date 2023-8-11
_chemical_formula_sum 'C18 H12'
_cell_formula_units_Z 8
_cell_length_a        14.3507483085
_cell_length_b         7.5878447427
_cell_length_c        22.4944475488
_cell_angle_alpha        89.9985
_cell_angle_beta        99.1920
_cell_angle_gamma        90.0002
_cell_volume          2417.994284
_space_group_crystal_system monoclinic
_space_group_IT_number 15
_space_group_name_H-M_alt 'C2/c'
_space_group_name_Hall '-C 2yc'
loop_
_symmetry_equiv_pos_site_id
_symmetry_equiv_pos_as_xyz
 1 'x,y,z'
 2 '-1/2-x,-1/2-y,-z'
 3 '-1/2-x,-1/2+y,-1/2-z'
 4 'x,-y,-1/2+z'
 5 '-1/2+x,-1/2+y,z'
 6 '-x,-y,-z'
 7 '-x,y,-1/2-z'
 8 '-1/2+x,-1/2-y,-1/2+z'
loop_
_atom_site_label
_atom_site_type_symbol
_atom_site_fract_x
_atom_site_fract_y
_atom_site_fract_z
H1    H     0.29407426017405 0.30121507006388 0.36067864984582 
H2    H     0.30643685975928 0.58747169053075 0.41098837984730 
H3    H     0.19732705993866 0.66649501946404 0.48313177001479 
H4    H     0.07216015983321 0.45711871992455 0.50009337978571 
H5    H     0.98441619000306 0.18814848000863 0.47581459006926 
H6    H     0.36369284017400 0.08417132012631 0.39562119978281 
H7    H     0.95230465993490 0.92449097006849 0.41124972005250 
H8    H     0.98995926016499 0.73504678990684 0.33372401981086 
H9    H     0.10526557998183 0.61352341012946 0.27298424980741 
H10   H     0.48152188982614 0.92713130064661 0.34804797004764 
H11   H     0.26452308990897 0.59597835050214 0.25297538012197 
H12   H     0.43220360969523 0.68774574999440 0.27309506999871 
C1    C     0.24898331012202 0.32848060987820 0.39405522984152 
C2    C     0.18088383999489 0.20172884030747 0.40480509006391 
C3    C     0.17043799995933 0.02993863018593 0.37623131012814 
C4    C     0.25510723012265 0.49188300042659 0.42177217012028 
C5    C     0.11372479982362 0.25509988996951 0.44222240997699 
C6    C     0.24278029022463 0.94159146012424 0.34906703987364 
C7    C     0.08283422998168 0.94136827022384 0.37462564983729 
C8    C     0.19304812028729 0.53760598041455 0.46175963022205 
C9    C     0.12320416994461 0.42094681022209 0.47119183988304 
C10   C     0.21699802026880 0.79304403991745 0.31036435979164 
C11   C     0.03393863993419 0.14700276944626 0.44651453978569 
C12   C     0.34030723010057 0.98418105015710 0.36200273984798 
C13   C     0.01669312988041 0.00051455940575 0.41131391010686 
C14   C     0.06005266996219 0.79239382049882 0.33638641004675 
C15   C     0.12322498028215 0.72532523960673 0.30303261014869 
C16   C     0.40708597033490 0.89469639044942 0.33545338008889 
C17   C     0.28616712002610 0.70733037934164 0.28241821985341 
C18   C     0.37969077976217 0.75793127065125 0.29397280978701 
