data_stdin
_audit_creation_method 'critic2'
_audit_creation_date 2023-8-11
_chemical_formula_sum 'C18 H12'
_cell_formula_units_Z 8
_cell_length_a         7.3029208212
_cell_length_b        31.9132717606
_cell_length_c        10.2119479910
_cell_angle_alpha        90.0005
_cell_angle_beta        89.9996
_cell_angle_gamma        89.9990
_cell_volume          2379.997587
_space_group_crystal_system orthorhombic
_space_group_IT_number 61
_space_group_name_H-M_alt 'Pbca'
_space_group_name_Hall '-P 2ac 2ab'
loop_
_symmetry_equiv_pos_site_id
_symmetry_equiv_pos_as_xyz
 1 'x,y,z'
 2 '-x,-y,-z'
 3 '-1/2-x,-y,-1/2+z'
 4 '-1/2+x,y,-1/2-z'
 5 '-1/2+x,-1/2-y,-z'
 6 '-1/2-x,-1/2+y,z'
 7 '-x,-1/2+y,-1/2-z'
 8 'x,-1/2-y,-1/2+z'
loop_
_atom_site_label
_atom_site_type_symbol
_atom_site_fract_x
_atom_site_fract_y
_atom_site_fract_z
H1    H     0.66262159064803 0.32933007987631 0.77214830957295 
H2    H     0.70577930987274 0.34162589001877 0.53721622990265 
H3    H     0.83871077060972 0.40894952998884 0.45794151041988 
H4    H     0.91141099955432 0.46510392985100 0.61793574035616 
H5    H     0.90379731993098 0.49265422008142 0.83964683959060 
H6    H     0.85486840970154 0.30357745006833 0.88695620993163 
H7    H     0.81170662019882 0.48490546986240 0.07125314039814 
H8    H     0.67938648052995 0.44406890012617 0.24591969958133 
H9    H     0.56739748032166 0.37670030006068 0.33562727985342 
H10   H     0.79676624004117 0.23667929010014 0.99470627042189 
H11   H     0.55067496976028 0.30073655999699 0.32134703956606 
H12   H     0.63080747030609 0.23447063003378 0.21025004033090 
C1    C     0.72703433032473 0.35816630986523 0.74001187988425 
C2    C     0.77599384992357 0.38858485005771 0.83484758951265 
C3    C     0.75303800954673 0.38247062992089 0.97429723031673 
C4    C     0.74750693938814 0.36550182005185 0.60735168958479 
C5    C     0.83448737034878 0.42867434015517 0.78730480971457 
C6    C     0.72554326055820 0.34203003004328 0.03586181998640 
C7    C     0.75068704015908 0.41851770990226 0.05584470987802 
C8    C     0.81843224002835 0.40384445999076 0.56223803996281 
C9    C     0.85941652016054 0.43495132009209 0.65142666015072 
C10   C     0.65112491990578 0.34048289002112 0.16581475040373 
C11   C     0.85610562941356 0.46256732003182 0.87677172007573 
C12   C     0.77983877036547 0.30342403007167 0.97874739006902 
C13   C     0.80731801940940 0.45813406988088 0.00515996042927 
C14   C     0.68575920024636 0.41554592015354 0.18738701011487 
C15   C     0.62650983979976 0.37832277003488 0.23790680044508 
C16   C     0.74836649985996 0.26545433994754 0.04043916036205 
C17   C     0.61322879933100 0.30126482986658 0.22450706981448 
C18   C     0.65871527030603 0.26426113994788 0.16247460028528 
