data_stdin
_audit_creation_method 'critic2'
_audit_creation_date 2023-8-11
_chemical_formula_sum 'C18 H12'
_cell_formula_units_Z 4
_cell_length_a        15.2492417149
_cell_length_b         3.9085195965
_cell_length_c        21.0369975055
_cell_angle_alpha        89.9993
_cell_angle_beta        67.6969
_cell_angle_gamma        89.9947
_cell_volume          1160.044990
_space_group_crystal_system monoclinic
_space_group_IT_number 14
_space_group_name_H-M_alt 'P2_1/c'
_space_group_name_Hall '-P 2ybc'
loop_
_symmetry_equiv_pos_site_id
_symmetry_equiv_pos_as_xyz
 1 'x,y,z'
 2 '-x,-y,-z'
 3 '-x,-1/2+y,-1/2-z'
 4 'x,-1/2-y,-1/2+z'
loop_
_atom_site_label
_atom_site_type_symbol
_atom_site_fract_x
_atom_site_fract_y
_atom_site_fract_z
H1    H     0.38719005986783 0.98156575120527 0.56487281999619 
H2    H     0.40130949011988 0.98757982045166 0.67609732019315 
H3    H     0.25779551002650 0.03662111031808 0.78416933005494 
H4    H     0.10051641015191 0.12775931094571 0.77681564013654 
H5    H     0.00267283994433 0.18944565992826 0.71100774000292 
H6    H     0.37762638022866 0.57421323878360 0.51771829991949 
H7    H     0.98771507040323 0.25498349903481 0.59836188981139 
H8    H     0.05357503014660 0.24832878082120 0.47642087985915 
H9    H     0.18449747986911 0.12532928104150 0.36565207987371 
H10   H     0.50037400019559 0.42298469894169 0.40733192994366 
H11   H     0.34217987968746 0.91398112967694 0.30191118999534 
H12   H     0.48721533004938 0.60625798049798 0.29753373977753 
C1    C     0.32280262980453 0.98856874884463 0.61075525018998 
C2    C     0.23337272009921 0.00496384921221 0.60463037023475 
C3    C     0.22039610961514 0.98802227059520 0.53981702020533 
C4    C     0.33117567017096 0.99858629945787 0.67391164992029 
C5    C     0.15267688031549 0.06977999019666 0.66663611982929 
C6    C     0.29169863029224 0.86894507025712 0.47571840005412 
C7    C     0.13262718989183 0.10442993035101 0.53878389006055 
C8    C     0.25049813026952 0.03345104909746 0.73472430984868 
C9    C     0.16305265018405 0.07716651948603 0.73066054979992 
C10   C     0.27953188993029 0.93647260012144 0.41254097010247 
C11   C     0.06314155026105 0.14504659024558 0.66330783001678 
C12   C     0.37196890991960 0.67108390959333 0.47112020986539 
C13   C     0.05474690010393 0.17744376908410 0.60130772006950 
C14   C     0.12108489014577 0.15043403993610 0.47517114013987 
C15   C     0.19322986981935 0.08222785030619 0.41403843012003 
C16   C     0.44062645004122 0.57893588875669 0.40858957012741 
C17   C     0.35200046027100 0.84749276896628 0.34907796003110 
C18   C     0.43236364980656 0.67649962947630 0.34667405982610 
