data_stdin
_audit_creation_method 'critic2'
_audit_creation_date 2023-8-11
_chemical_formula_sum 'C18 H12'
_cell_formula_units_Z 4
_cell_length_a         3.9054664406
_cell_length_b        30.4646337656
_cell_length_c         9.7653609337
_cell_angle_alpha        89.9828
_cell_angle_beta        90.0010
_cell_angle_gamma        89.9611
_cell_volume          1161.868698
_space_group_crystal_system triclinic
_space_group_IT_number 1
_space_group_name_H-M_alt 'P1'
_space_group_name_Hall 'P 1'
loop_
_symmetry_equiv_pos_site_id
_symmetry_equiv_pos_as_xyz
 1 'x,y,z'
loop_
_atom_site_label
_atom_site_type_symbol
_atom_site_fract_x
_atom_site_fract_y
_atom_site_fract_z
H1    H     0.40629820027330 0.66418444989197 0.41844657024541 
H2    H     0.90647851014436 0.83576192010157 0.58151629011542 
H3    H     0.59356298080878 0.16421521013393 0.08156981968646 
H4    H     0.09375077906974 0.33583771989998 0.91839520000064 
H5    H     0.23566636929048 0.64137862010842 0.18893909979361 
H6    H     0.73580671080324 0.85857128011367 0.81105382028485 
H7    H     0.76429404978770 0.14138000990372 0.31111888029524 
H8    H     0.26443388063850 0.35866984986456 0.68887560025416 
H9    H     0.92439664002356 0.57096350015732 0.15230642028270 
H10   H     0.42433744906983 0.92902216997833 0.84774610026636 
H11   H     0.07584330916292 0.07092958004641 0.34785468966207 
H12   H     0.57578231069866 0.42908463984114 0.65219862962994 
H13   H     0.82049092012582 0.52165333992869 0.35063466998855 
H14   H     0.32036038961043 0.97836950996596 0.64946511033098 
H15   H     0.17985851069404 0.02161184011167 0.14960825028054 
H16   H     0.67972964104864 0.47836502998601 0.85049219026082 
H17   H     0.89608260884208 0.50315645015131 0.58922657955971 
H18   H     0.39613057066979 0.99688904006415 0.41089962999800 
H19   H     0.10407935084452 0.00311849991394 0.91106806967665 
H20   H     0.60412767879469 0.49683592993897 0.08905847012359 
H21   H     0.12060497989650 0.69989458008250 0.53887780986652 
H22   H     0.62054656105193 0.80012277993278 0.46102276030270 
H23   H     0.87930354070504 0.19988019013654 0.96104307036732 
H24   H     0.37925117057416 0.30010254004898 0.03885993048050 
H25   H     0.14777350050765 0.52018172999457 0.81583281000248 
H26   H     0.64816262897201 0.97986095991657 0.18432153026683 
H27   H     0.85195454924380 0.02016590012598 0.68448428041783 
H28   H     0.35234358094823 0.47979153001682 0.31567025033389 
H29   H     0.43988458117587 0.56802283014865 0.96811110963828 
H30   H     0.94041293972884 0.93198464989600 0.03200947958586 
H31   H     0.55972485046561 0.06805591992921 0.53213127966354 
H32   H     0.06025139946406 0.43193685006909 0.46798868036667 
H33   H     0.68539396112338 0.64076393983945 0.02636398999899 
H34   H     0.18578151020445 0.85919982000103 0.97367200025712 
H35   H     0.31423605932849 0.14084210993592 0.47373214042755 
H36   H     0.81461767996429 0.35919452998659 0.52630243957791 
H37   H     0.28258506064433 0.77283991988285 0.61544663039018 
H38   H     0.78227438020599 0.72714738992936 0.38434470018119 
H39   H     0.71733042015186 0.27285674997158 0.88432038034737 
H40   H     0.21702357873714 0.22715595990069 0.11547333009018 
H41   H     0.74417051944271 0.71809584993876 0.97652333015923 
H42   H     0.24422900060605 0.78184124005763 0.02338813031942 
H43   H     0.25554349971177 0.21818712994782 0.52340403982800 
H44   H     0.75559254872582 0.28187624988070 0.47650560003689 
H45   H     0.62420381122562 0.78279982991787 0.83050924017705 
H46   H     0.12395901044533 0.71714296984788 0.16929300989407 
H47   H     0.37558783891524 0.28287159989735 0.66926352025770 
H48   H     0.87533791068737 0.21718596010414 0.33053838959951 
C1    C     0.25903153972291 0.63424217004599 0.40695745989443 
C2    C     0.75916938122471 0.86572571985431 0.59304034036929 
C3    C     0.74091709055866 0.13425339001932 0.09310912047549 
C4    C     0.24105919901133 0.36577829991845 0.90689027957533 
C5    C     0.18715927964202 0.60816262011238 0.52383183012446 
C6    C     0.68726746037179 0.89182881015330 0.47619305980444 
C7    C     0.81282953922889 0.10816628007780 0.97627970017945 
C8    C     0.31294088041841 0.39184205005748 0.02374634015338 
C9    C     0.27876696043231 0.62047642986994 0.66253507958646 
C10   C     0.77894690934397 0.87951779002722 0.33748261991887 
C11   C     0.72110426938641 0.12049107001824 0.83756127951355 
C12   C     0.22128602007243 0.37951466006254 0.16245723028656 
C13   C     0.16768937959945 0.62104060991652 0.27648116019382 
C14   C     0.66778150057945 0.87892626983598 0.72352814033147 
C15   C     0.83233452076641 0.12103825992086 0.22360581985983 
C16   C     0.33242806927268 0.37899453995961 0.77640485987425 
C17   C     0.03966080878444 0.56572592993719 0.49947675991226 
C18   C     0.53968075992029 0.93428381999790 0.50058539027030 
C19   C     0.96047723983751 0.06571154992016 0.00070072031620 
C20   C     0.46049923062196 0.43427847984180 0.99936212957722 
C21   C     0.36425900013993 0.66469560014097 0.70539189963145 
C22   C     0.86436503033210 0.83528677985259 0.29457029044399 
C23   C     0.63558245954493 0.16472448002042 0.79461778028012 
C24   C     0.13568916885495 0.33529318001672 0.20534521960467 
C25   C     0.28505517006363 0.58694105000432 0.76343214950747 
C26   C     0.78535419905313 0.91306676006715 0.23663562999105 
C27   C     0.71473260041555 0.08695349998753 0.73674306049589 
C28   C     0.21503167976507 0.41303873000330 0.26332508967269 
C29   C     0.99833251878876 0.58089099010347 0.25525693011395 
C30   C     0.49830446901465 0.91909563987382 0.74478596000344 
C31   C     0.00186178061541 0.08086958002036 0.24488900041707 
C32   C     0.50183386045992 0.41914355996205 0.75515477003821 
C33   C     0.93930392966345 0.55361519993281 0.36555679997770 
C34   C     0.43922998041927 0.94639163001495 0.63451289974631 
C35   C     0.06096405874302 0.05358967984225 0.13463501976544 
C36   C     0.56089163929164 0.44640320006856 0.86543539980025 
C37   C     0.52057478076941 0.67133912013801 0.83669528004167 
C38   C     0.02072972059785 0.82862918014919 0.16326994002471 
C39   C     0.47919716879951 0.17139237998071 0.66331331003832 
C40   C     0.97934898004351 0.32863954006047 0.33665160978179 
C41   C     0.01366738067173 0.53496242007919 0.60896071011287 
C42   C     0.51375919017161 0.96506653009665 0.39113778004659 
C43   C     0.98640563917006 0.03494079001220 0.89128226045949 
C44   C     0.48649836051473 0.46503015985376 0.10881674975089 
C45   C     0.27696761015503 0.70286344998988 0.63002594956779 
C46   C     0.77691929095009 0.79712793994255 0.36987617951407 
C47   C     0.72291212954666 0.20287780009710 0.86989680999852 
C48   C     0.22286736972707 0.29713086014376 0.13000688961741 
C49   C     0.14734488906754 0.54462608004690 0.73442358050255 
C50   C     0.64761645904047 0.95540202990629 0.26568748950214 
C51   C     0.85250537088363 0.04461616011043 0.76582806015266 
C52   C     0.35277738050336 0.45535575986045 0.23428342046327 
C53   C     0.42991082086647 0.59508216006537 0.89512034030187 
C54   C     0.93031984997800 0.90491611010389 0.10495761012722 
C55   C     0.56976562061604 0.09511625997187 0.60505632972870 
C56   C     0.07017272083419 0.40488566990474 0.39502128017148 
C57   C     0.56029703925651 0.63524186995426 0.92817483954236 
C58   C     0.06063012970648 0.86473314996296 0.07185593960907 
C59   C     0.43939011981336 0.13529980990296 0.57192212983559 
C60   C     0.93971930119204 0.36472544992100 0.42810794016911 
C61   C     0.36424066009878 0.74443477001183 0.67474202007522 
C62   C     0.86406464899744 0.75554338985308 0.32510355034036 
C63   C     0.63563061127333 0.24446421002964 0.82509942016569 
C64   C     0.13545604895339 0.25555775011106 0.17474747020186 
C65   C     0.61753203085206 0.71402310985361 0.87805549991723 
C66   C     0.11755419066664 0.78592861000551 0.12185157036625 
C67   C     0.38223260107071 0.21409356985937 0.62186961967404 
C68   C     0.88224931045773 0.28595502006441 0.37803670984397 
C69   C     0.54711793982132 0.75013522993226 0.79747667005500 
C70   C     0.04697641950454 0.74982053007232 0.20237153951023 
C71   C     0.45268927072799 0.25019423997318 0.70236599032797 
C72   C     0.95254541979516 0.24985024989837 0.29748234024091 
