data_stdin
_audit_creation_method 'critic2'
_audit_creation_date 2023-8-11
_chemical_formula_sum 'C18 H12'
_cell_formula_units_Z 4
_cell_length_a         9.2851244109
_cell_length_b        18.8874324900
_cell_length_c         6.9524331421
_cell_angle_alpha        89.9987
_cell_angle_beta        89.9991
_cell_angle_gamma        90.0008
_cell_volume          1219.263220
_space_group_crystal_system orthorhombic
_space_group_IT_number 33
_space_group_name_H-M_alt 'Pna2_1'
_space_group_name_Hall 'P 2c -2n'
loop_
_symmetry_equiv_pos_site_id
_symmetry_equiv_pos_as_xyz
 1 'x,y,z'
 2 '-x,-y,-1/2+z'
 3 '-1/2-x,-1/2+y,-1/2+z'
 4 '-1/2+x,-1/2-y,z'
loop_
_atom_site_label
_atom_site_type_symbol
_atom_site_fract_x
_atom_site_fract_y
_atom_site_fract_z
H1    H     0.02016488043815 0.33814220999527 0.98297520035088 
H2    H     0.13343246051180 0.28826219989354 0.69810850037723 
H3    H     0.39975476038686 0.28367114982185 0.66657160015302 
H4    H     0.55222984988844 0.34147826974947 0.91814005987089 
H5    H     0.57481841041891 0.40895932026161 0.21055121969058 
H6    H     0.97340112979914 0.27931793005014 0.20349748023726 
H7    H     0.46317410984975 0.47227805981186 0.48487451965194 
H8    H     0.25723851042867 0.50351988013452 0.67436938953106 
H9    H     0.99968634963323 0.49155692994890 0.75548097952136 
H10   H     0.72992313954493 0.26005055997296 0.31739627987461 
H11   H     0.77159327012939 0.43402735993394 0.71385746026666 
H12   H     0.62052911045094 0.34000923014803 0.56463234975777 
C1    C     0.13680967955842 0.33523612013628 0.97777886993110 
C2    C     0.21991203018310 0.36297149015487 0.13155442946671 
C3    C     0.15943699018784 0.38908738993242 0.31057050045973 
C4    C     0.20090012947317 0.30763863977935 0.81467685063297 
C5    C     0.37243256989462 0.36851028017831 0.10081654946556 
C6    C     0.01525985994435 0.37283215993036 0.37858550009624 
C7    C     0.24756708029516 0.43304969023986 0.42794180962822 
C8    C     0.35159730954339 0.30685627989959 0.79470270959731 
C9    C     0.43556310007597 0.33845858973560 0.93433687036722 
C10   C     0.95698646956806 0.41306471011636 0.53564891929974 
C11   C     0.45905089008724 0.40652903996257 0.23474455997577 
C12   C     0.92953460043099 0.31621205994830 0.30782543976240 
C13   C     0.39764099966972 0.44050738002558 0.38748312990972 
C14   C     0.18741536046596 0.46963344010125 0.58853622940199 
C15   C     0.04543399987780 0.46255424991682 0.63519591053854 
C16   C     0.79114875990890 0.30443925022479 0.37457126010293 
C17   C     0.81379939036118 0.40111685004101 0.59805767019417 
C18   C     0.73077088989781 0.34840684022152 0.51689976953714 
