data_stdin
_audit_creation_method 'critic2'
_audit_creation_date 2023-8-11
_chemical_formula_sum 'C18 H12'
_cell_formula_units_Z 8
_cell_length_a        25.6911038661
_cell_length_b         4.6760157625
_cell_length_c        19.9142885313
_cell_angle_alpha        89.9956
_cell_angle_beta        82.8943
_cell_angle_gamma        90.0006
_cell_volume          2373.969416
_space_group_crystal_system monoclinic
_space_group_IT_number 15
_space_group_name_H-M_alt 'C2/c'
_space_group_name_Hall '-C 2yc'
loop_
_symmetry_equiv_pos_site_id
_symmetry_equiv_pos_as_xyz
 1 'x,y,z'
 2 '-1/2-x,-1/2-y,-z'
 3 '-1/2-x,-1/2+y,-1/2-z'
 4 'x,-y,-1/2+z'
 5 '-1/2+x,-1/2+y,z'
 6 '-x,-y,-z'
 7 '-x,y,-1/2-z'
 8 '-1/2+x,-1/2-y,-1/2+z'
loop_
_atom_site_label
_atom_site_type_symbol
_atom_site_fract_x
_atom_site_fract_y
_atom_site_fract_z
H1    H     0.21928904903474 0.63046675580840 0.05092131559020 
H2    H     0.28328105433091 0.29351558357914 0.08486496242560 
H3    H     0.26309085941978 0.00396556143559 0.19135892019891 
H4    H     0.18102143352869 0.09533054853198 0.26625601984818 
H5    H     0.10193391233095 0.37848029684350 0.29647024690459 
H6    H     0.89810486425559 0.37866511134192 0.20353026851332 
H7    H     0.16743478625703 0.50628582548613 0.99495723841330 
H8    H     0.04250019402349 0.76516044009552 0.27024874756492 
H9    H     0.01464862694647 0.11862401972074 0.19411640266716 
H10   H     0.01587511683349 0.32009928672498 0.07954881847228 
H11   H     0.16019531984425 0.67403615765100 0.88111193341095 
H12   H     0.04492232768487 0.29462192954282 0.95990939433241 
H13   H     0.10006936335280 0.08018502415014 0.86149171254922 
C1    C     0.20869775263207 0.50213218289554 0.09594098058319 
C2    C     0.15928960314834 0.54394335073711 0.13511386026074 
C3    C     0.11847273962617 0.72908137030723 0.11535742150848 
C4    C     0.24545671072060 0.31394897285882 0.11579217006589 
C5    C     0.15147250055643 0.40677540065085 0.20002397199836 
C6    C     0.11486947831118 0.82093104741463 0.04646402352843 
C7    C     0.07867914015871 0.82150678180272 0.16665763266486 
C8    C     0.23485555324024 0.15705282190266 0.17624363050137 
C9    C     0.18881641212819 0.20746349388459 0.21806024634207 
C10   C     0.07742549313326 0.03698808528532 0.03427150340772 
C11   C     0.10748928241820 0.48370131250235 0.24730115991654 
C12   C     0.14312150500292 0.69135588771938 0.98870548873150 
C13   C     0.07424434599835 0.69589872996373 0.23240889077301 
C14   C     0.04239211551139 0.03826700755656 0.15267322061485 
C15   C     0.04295144498631 0.15039431898656 0.08936736323132 
C16   C     0.13795809720876 0.78242266843683 0.92376805804503 
C17   C     0.07325941915804 0.12802540466104 0.96741208787898 
C18   C     0.10356504245785 0.00666902651395 0.91264780778364 
