data_stdin
_audit_creation_method 'critic2'
_audit_creation_date 2023-8-11
_chemical_formula_sum 'C18 H12'
_cell_formula_units_Z 4
_cell_length_a         4.7975970915
_cell_length_b        19.6684273664
_cell_length_c        12.9953289278
_cell_angle_alpha        89.9986
_cell_angle_beta       102.1737
_cell_angle_gamma        90.0016
_cell_volume          1198.679849
_space_group_crystal_system monoclinic
_space_group_IT_number 14
_space_group_name_H-M_alt 'P2_1/c'
_space_group_name_Hall '-P 2ybc'
loop_
_symmetry_equiv_pos_site_id
_symmetry_equiv_pos_as_xyz
 1 'x,y,z'
 2 '-x,-y,-z'
 3 '-x,-1/2+y,-1/2-z'
 4 'x,-1/2-y,-1/2+z'
loop_
_atom_site_label
_atom_site_type_symbol
_atom_site_fract_x
_atom_site_fract_y
_atom_site_fract_z
H1    H     0.86127908096836 0.53615299010356 0.43987144989663 
H2    H     0.60085880097277 0.55317136998631 0.57936934018508 
H3    H     0.29669882929724 0.65678519013600 0.58071561001528 
H4    H     0.30851174975438 0.74801490976664 0.44885073999056 
H5    H     0.49608187979114 0.79487317022882 0.30669819970755 
H6    H     0.68987847933367 0.48926934002371 0.31192341975640 
H7    H     0.80220266998262 0.78419482007997 0.17540553978091 
H8    H     0.09925888039080 0.72037198004466 0.08818186968117 
H9    H     0.31896412111905 0.61145242018150 0.04976621021950 
H10   H     0.85082673027663 0.38193582008782 0.25128386976665 
H11   H     0.33988173915970 0.48968000986272 0.06229251014310 
H12   H     0.18505727980707 0.38038002981966 0.12756932027615 
C1    C     0.72726655029740 0.58082583018275 0.43691011037668 
C2    C     0.71699287054638 0.62877091010070 0.35468857016961 
C3    C     0.85287892883834 0.61924236006832 0.26602424960037 
C4    C     0.58244944095598 0.59096142980053 0.51715041014843 
C5    C     0.57727640055641 0.69207152022631 0.36535508036932 
C6    C     0.94228320090522 0.55399082023095 0.23186442021992 
C7    C     0.89639560925464 0.67768138976845 0.20715382027214 
C8    C     0.41866133056838 0.65007485996657 0.51963622034491 
C9    C     0.42266119891330 0.70038432982108 0.44593371977355 
C10   C     0.11662453040369 0.55232437991092 0.15457080989757 
C11   C     0.60452876043502 0.74730741981224 0.29731333983489 
C12   C     0.84672534991126 0.49048324000962 0.26297719975752 
C13   C     0.77148527083518 0.74126335007323 0.22476774983560 
C14   C     0.06441954084899 0.67376571984358 0.12889896970740 
C15   C     0.18294235084724 0.61386686986314 0.10701004009033 
C16   C     0.93295019912854 0.42948800997942 0.22659700005897 
C17   C     0.20619399982934 0.48929088990631 0.12036080024371 
C18   C     0.11900128013699 0.42846097988553 0.15629246992161 
