data_stdin
_audit_creation_method 'critic2'
_audit_creation_date 2023-8-11
_chemical_formula_sum 'C18 H12'
_cell_formula_units_Z 4
_cell_length_a         7.9085669897
_cell_length_b        21.3727048800
_cell_length_c         7.5071870830
_cell_angle_alpha        90.0033
_cell_angle_beta        68.2369
_cell_angle_gamma        90.0005
_cell_volume          1178.478563
_space_group_crystal_system monoclinic
_space_group_IT_number 14
_space_group_name_H-M_alt 'P2_1/c'
_space_group_name_Hall '-P 2ybc'
loop_
_symmetry_equiv_pos_site_id
_symmetry_equiv_pos_as_xyz
 1 'x,y,z'
 2 '-x,-y,-z'
 3 '-x,-1/2+y,-1/2-z'
 4 'x,-1/2-y,-1/2+z'
loop_
_atom_site_label
_atom_site_type_symbol
_atom_site_fract_x
_atom_site_fract_y
_atom_site_fract_z
H1    H     0.29074216056444 0.52435849914234 0.27472946970121 
H2    H     0.34820888909483 0.41439512915653 0.18912020272258 
H3    H     0.10996944908166 0.34806843612282 0.13837569752613 
H4    H     0.80904787326739 0.39429002401745 0.18619167336135 
H5    H     0.59852147988879 0.48061821382737 0.27508948095213 
H6    H     0.35174805854176 0.59364825277656 0.09334262328366 
H7    H     0.52041741227334 0.58776587357824 0.40489817518539 
H8    H     0.59881181728095 0.68370190541984 0.51384352223556 
H9    H     0.82598107597425 0.75530687666918 0.56390277325918 
H10   H     0.57174005554485 0.67244183974826 0.10172261843638 
H11   H     0.14034334114129 0.78427765904343 0.49105698384198 
H12   H     0.46993325627143 0.76679956828742 0.31336965559827 
C1    C     0.18842984371177 0.49800247874437 0.24246587068521 
C2    C     0.02145208529181 0.52706049240328 0.26087278934330 
C3    C     0.98081203835519 0.59239523549354 0.30946322124446 
C4    C     0.21998421398448 0.43529651507030 0.19733870388468 
C5    C     0.88127110002526 0.48728532935229 0.24542359659777 
C6    C     0.11571617519005 0.63946471720013 0.30062095740055 
C7    C     0.79591181443913 0.61165945762696 0.37433817559858 
C8    C     0.08533898176313 0.39762446726815 0.17081947182796 
C9    C     0.91785737974105 0.42338510191403 0.19743318340881 
C10   C     0.05715042854827 0.69747081802305 0.40112635330242 
C11   C     0.70253413916305 0.51136885597245 0.28949170790316 
C12   C     0.30393997118540 0.63365152331508 0.18786389883945 
C13   C     0.65960669417469 0.57054503036655 0.35997387055634 
C14   C     0.74287507442691 0.67158922905625 0.46132345203901 
C15   C     0.86759161019822 0.71145026223614 0.48567778043363 
C16   C     0.42844617092606 0.67888244846142 0.19007469978104 
C17   C     0.18767459385500 0.74184539338398 0.40689827760938 
C18   C     0.37120795073188 0.73240467590626 0.30616420023977 
