data_stdin
_audit_creation_method 'critic2'
_audit_creation_date 2023-8-11
_chemical_formula_sum 'C18 H12'
_cell_formula_units_Z 4
_cell_length_a         4.4987300627
_cell_length_b        13.2297585019
_cell_length_c        20.3394344515
_cell_angle_alpha        90.0024
_cell_angle_beta        78.7668
_cell_angle_gamma        89.9998
_cell_volume          1187.353528
_space_group_crystal_system monoclinic
_space_group_IT_number 14
_space_group_name_H-M_alt 'P2_1/c'
_space_group_name_Hall '-P 2ybc'
loop_
_symmetry_equiv_pos_site_id
_symmetry_equiv_pos_as_xyz
 1 'x,y,z'
 2 '-x,-y,-z'
 3 '-x,-1/2+y,-1/2-z'
 4 'x,-1/2-y,-1/2+z'
loop_
_atom_site_label
_atom_site_type_symbol
_atom_site_fract_x
_atom_site_fract_y
_atom_site_fract_z
H1    H     0.11633092060643 0.40210039027786 0.67849274977997 
H2    H     0.86832284962990 0.51256901965241 0.60969690975523 
H3    H     0.66619426941685 0.44263974027614 0.51290372013472 
H4    H     0.75700286077960 0.26240510978649 0.48186604981562 
H5    H     0.00309329991750 0.10280856999222 0.49437838018776 
H6    H     0.89523028053129 0.33460214963874 0.75725648018459 
H7    H     0.32117253987529 0.99666644031278 0.55385078987467 
H8    H     0.56076462980278 0.96450346009607 0.64544263995796 
H9    H     0.68235149959953 0.01029174031976 0.75472825994396 
H10   H     0.96991801032790 0.36440120969405 0.87037467004013 
H11   H     0.60328516985973 0.11737697026664 0.85263388995486 
H12   H     0.33624357030578 0.25899292020346 0.91954769976017 
C1    C     0.02316843929234 0.36902814978244 0.63812354986335 
C2    C     0.06022535057629 0.26405799964410 0.62487251021425 
C3    C     0.19560239016047 0.19449564968302 0.66572450997845 
C4    C     0.88757016923851 0.43210905962940 0.59841473984737 
C5    C     0.97719213051022 0.22782965018162 0.56445137986068 
C6    C     0.22724487991851 0.21395435975690 0.73424794994180 
C7    C     0.30212581935063 0.10040363005563 0.63680894008612 
C8    C     0.77845738980476 0.39323266990924 0.54321102977744 
C9    C     0.82696214105783 0.29279121030356 0.52625711983739 
C10   C     0.41165210075710 0.14751655992548 0.76530768015871 
C11   C     0.06451088034648 0.12871157966104 0.54080276990035 
C12   C     0.06589968888732 0.29044830005648 0.77536634023144 
C13   C     0.23568425122061 0.06968618995856 0.57405359978399 
C14   C     0.47571219063677 0.03466848005159 0.67009364985585 
C15   C     0.54045915061158 0.05935372000739 0.73084640000621 
C16   C     0.10343076050276 0.30586865986043 0.84054117025699 
C17   C     0.45291030114093 0.16690327975267 0.83136338996990 
C18   C     0.30460691954763 0.24564559986811 0.86853731011478 
