data_stdin
_audit_creation_method 'critic2'
_audit_creation_date 2023-8-11
_chemical_formula_sum 'C18 H12'
_cell_formula_units_Z 4
_cell_length_a        16.3333843306
_cell_length_b         5.7243782543
_cell_length_c        13.6870836352
_cell_angle_alpha        90.0020
_cell_angle_beta        70.5651
_cell_angle_gamma        89.9993
_cell_volume          1206.802897
_space_group_crystal_system monoclinic
_space_group_IT_number 14
_space_group_name_H-M_alt 'P2_1/c'
_space_group_name_Hall '-P 2ybc'
loop_
_symmetry_equiv_pos_site_id
_symmetry_equiv_pos_as_xyz
 1 'x,y,z'
 2 '-x,-y,-z'
 3 '-x,-1/2+y,-1/2-z'
 4 'x,-1/2-y,-1/2+z'
loop_
_atom_site_label
_atom_site_type_symbol
_atom_site_fract_x
_atom_site_fract_y
_atom_site_fract_z
H1    H     0.14620106009511 0.18711137978279 0.04632145988747 
H2    H     0.17048556031254 0.51407121046631 0.14751186974633 
H3    H     0.32056388980298 0.62720175925119 0.13723604008351 
H4    H     0.44519703977174 0.38691213985224 0.03002436005688 
H5    H     0.50432974002320 0.07293188989043 0.91218049976665 
H6    H     0.12951070997608 0.21978791978628 0.91998704012539 
H7    H     0.48254339994498 0.72263749964937 0.81600465016216 
H8    H     0.39327339995460 0.46666627063802 0.76278030997608 
H9    H     0.25356173024276 0.36321936939071 0.74059303019117 
H10   H     0.99791143017513 0.12370261023953 0.88423194997102 
H11   H     0.10769089014096 0.46174540986568 0.75666935006262 
H12   H     0.98255454000264 0.73581579079924 0.80581064037730 
C1    C     0.21244602976875 0.23743376994140 0.03639327018688 
C2    C     0.28230965004807 0.11111319966210 0.96641010028623 
C3    C     0.27236793992421 0.92895764996044 0.89726079020341 
C4    C     0.22590641978112 0.42000629914979 0.09560149965970 
C5    C     0.36760187013346 0.16478940964595 0.96856774014429 
C6    C     0.19385976990331 0.88598357918727 0.87214949974826 
C7    C     0.34512304981209 0.78256348000929 0.84974679998292 
C8    C     0.31045094015027 0.48202330063202 0.09122589031371 
C9    C     0.37955481996024 0.35093261081210 0.03054998967891 
C10   C     0.18738351019120 0.67524756970730 0.81811120991800 
C11   C     0.44011546011137 0.02708983963688 0.91028729962427 
C12   C     0.12411834004000 0.04678674070353 0.89065086989145 
C13   C     0.42835079983229 0.83648007078491 0.85657615003558 
C14   C     0.33676954997149 0.57891501914105 0.79377668978880 
C15   C     0.25979614971170 0.52163588080210 0.78149311027832 
C16   C     0.04977442969469 0.99470437913210 0.86764685006960 
C17   C     0.11028701980927 0.62465542031027 0.79657233004199 
C18   C     0.04132328012008 0.77866830946170 0.82286831022283 
