data_stdin
_audit_creation_method 'critic2'
_audit_creation_date 2023-8-11
_chemical_formula_sum 'C18 H12'
_cell_formula_units_Z 4
_cell_length_a        14.5379230891
_cell_length_b         4.8604381861
_cell_length_c        17.2713090165
_cell_angle_alpha        89.9982
_cell_angle_beta        84.6236
_cell_angle_gamma        89.9978
_cell_volume          1215.033358
_space_group_crystal_system monoclinic
_space_group_IT_number 14
_space_group_name_H-M_alt 'P2_1/c'
_space_group_name_Hall '-P 2ybc'
loop_
_symmetry_equiv_pos_site_id
_symmetry_equiv_pos_as_xyz
 1 'x,y,z'
 2 '-x,-y,-z'
 3 '-x,-1/2+y,-1/2-z'
 4 'x,-1/2-y,-1/2+z'
loop_
_atom_site_label
_atom_site_type_symbol
_atom_site_fract_x
_atom_site_fract_y
_atom_site_fract_z
H1    H     0.11103715028211 0.47545454929382 0.61658393992613 
H2    H     0.07516497018034 0.12568257968478 0.52196081978371 
H3    H     0.20101558037019 0.83907387045218 0.45425776972969 
H4    H     0.36387858972002 0.93938236938433 0.47573726997946 
H5    H     0.47796455023453 0.21735277921575 0.53335722014782 
H6    H     0.10835837012938 0.38220490915793 0.72471613985036 
H7    H     0.51685875965529 0.59578057938037 0.62004371024770 
H8    H     0.47365403984055 0.94415918955892 0.71372977987156 
H9    H     0.35649670005800 0.17687894009556 0.80507627984107 
H10   H     0.00257841009964 0.57597042085270 0.82685892011579 
H11   H     0.20505773018639 0.18558458913726 0.87336545988855 
H12   H     0.04767196999134 0.99390294982645 0.90087360991101 
C1    C     0.16632828982007 0.34687946906800 0.59016622988965 
C2    C     0.25782224001764 0.39107167038045 0.60966676009462 
C3    C     0.28190068996582 0.57927713965709 0.66974911989092 
C4    C     0.14638176972834 0.15321201967846 0.53543848019084 
C5    C     0.33010517971389 0.25102126034926 0.56305925009804 
C6    C     0.21690064988717 0.68546792101912 0.73145402997874 
C7    C     0.37575025978886 0.66232157026872 0.66886312974085 
C8    C     0.21724744993112 0.99549288898111 0.49592280005073 
C9    C     0.30780209968815 0.05027765907150 0.50846972980345 
C10   C     0.24503918006743 0.90595684039351 0.77924896995946 
C11   C     0.42391932000455 0.32303242958322 0.56984824983558 
C12   C     0.12858222983466 0.56943708100834 0.75255204990824 
C13   C     0.44535580981595 0.53123035061114 0.61806793980066 
C14   C     0.40174122974305 0.87784200934722 0.71862705020550 
C15   C     0.33773680976438 0.00434843974370 0.76948022023442 
C16   C     0.06887886020463 0.67663649088079 0.81210994004561 
C17   C     0.18219767029941 0.01611698030501 0.83870682995230 
C18   C     0.09469003993045 0.90694302975859 0.85439127006868 
