data_stdin
_audit_creation_method 'critic2'
_audit_creation_date 2023-8-11
_chemical_formula_sum 'C18 H12'
_cell_formula_units_Z 4
_cell_length_a         9.1810492836
_cell_length_b         8.0762718168
_cell_length_c        17.1434421492
_cell_angle_alpha        90.0025
_cell_angle_beta        68.5236
_cell_angle_gamma        90.0002
_cell_volume          1182.904259
_space_group_crystal_system monoclinic
_space_group_IT_number 14
_space_group_name_H-M_alt 'P2_1/c'
_space_group_name_Hall '-P 2ybc'
loop_
_symmetry_equiv_pos_site_id
_symmetry_equiv_pos_as_xyz
 1 'x,y,z'
 2 '-x,-y,-z'
 3 '-x,-1/2+y,-1/2-z'
 4 'x,-1/2-y,-1/2+z'
loop_
_atom_site_label
_atom_site_type_symbol
_atom_site_fract_x
_atom_site_fract_y
_atom_site_fract_z
H1    H     0.73773610027247 0.64946618015070 0.42687804021860 
H2    H     0.54469130960618 0.85216595987158 0.50733859980413 
H3    H     0.37863139021393 0.79867078037230 0.65702280022276 
H4    H     0.40000411958973 0.52805380949502 0.72102224022554 
H5    H     0.50109170056850 0.25019111952299 0.70887930988905 
H6    H     0.95846538047749 0.64213872955592 0.41967162995050 
H7    H     0.66102153985978 0.02372230953634 0.62000120990954 
H8    H     0.84155833036272 0.92429894028345 0.49003717005080 
H9    H     0.03191632993279 0.97104194022782 0.34551325979590 
H10   H     0.16907588969985 0.68352798998817 0.28451127006624 
H11   H     0.18968864982867 0.15899261010971 0.23800887975826 
H12   H     0.28275929999747 0.44258768050178 0.18946026012330 
C1    C     0.67193376023836 0.62506634982348 0.49267775991224 
C2    C     0.69337760991603 0.47284879027776 0.52831789990812 
C3    C     0.80507379016109 0.34750357051907 0.48263761004358 
C4    C     0.56099279997994 0.73935526025356 0.53792078015677 
C5    C     0.58645027962745 0.43657895980100 0.61146031021820 
C6    C     0.93663057062998 0.37744329023742 0.40534386982339 
C7    C     0.78147002010893 0.18318432975071 0.51442977996552 
C8    C     0.46560524955281 0.70816087966278 0.62184631992120 
C9    C     0.47785400041488 0.55799699939967 0.65740981000234 
C10   C     0.01411239946764 0.23884754051489 0.35469321005783 
C11   C     0.58206881023070 0.27464340965264 0.64527040976902 
C12   C     0.00095522964675 0.53654481945824 0.37844450976575 
C13   C     0.67116586979017 0.15053778945477 0.59677354008527 
C14   C     0.86602091981011 0.04866750956952 0.46406818989195 
C15   C     0.97242372953177 0.07464158011273 0.38506143999221 
C16   C     0.12283644053806 0.55951575029798 0.30260020969586 
C17   C     0.13648897980117 0.26611730965040 0.27654509975622 
C18   C     0.18870962985946 0.42400436032754 0.24985219019846 
