data_stdin
_audit_creation_method 'critic2'
_audit_creation_date 2023-8-11
_chemical_formula_sum 'C18 H12'
_cell_formula_units_Z 4
_cell_length_a        20.6280400710
_cell_length_b         3.8455408583
_cell_length_c        14.7090030701
_cell_angle_alpha        89.9935
_cell_angle_beta        89.9994
_cell_angle_gamma        90.0050
_cell_volume          1166.805938
_space_group_crystal_system orthorhombic
_space_group_IT_number 33
_space_group_name_H-M_alt 'Pna2_1'
_space_group_name_Hall 'P 2c -2n'
loop_
_symmetry_equiv_pos_site_id
_symmetry_equiv_pos_as_xyz
 1 'x,y,z'
 2 '-x,-y,-1/2+z'
 3 '-1/2-x,-1/2+y,-1/2+z'
 4 '-1/2+x,-1/2-y,z'
loop_
_atom_site_label
_atom_site_type_symbol
_atom_site_fract_x
_atom_site_fract_y
_atom_site_fract_z
H1    H     0.25733642004951 0.91117672935905 0.00577940993309 
H2    H     0.37234093000874 0.04371771957671 0.02272080988308 
H3    H     0.43608511007966 0.27764722891428 0.89155272030913 
H4    H     0.38424059982998 0.31223066095896 0.73952601989380 
H5    H     0.29320580017557 0.20580149951108 0.64019821024294 
H6    H     0.19026549006607 0.28402809017295 0.02149577975417 
H7    H     0.18253861995792 0.96812247933455 0.61667433972907 
H8    H     0.08312014012382 0.73069291112087 0.67595010999912 
H9    H     0.00716817017750 0.62964399093060 0.80384221009202 
H10   H     0.10842052006077 0.26623045983330 0.14085459029902 
H11   H     0.97868166976354 0.71724137122684 0.96263616981858 
H12   H     0.00308140021628 0.95699688950886 0.11557812024800 
C1    C     0.28348879000586 0.01641210884130 0.94799190997060 
C2    C     0.25102937999316 0.05956533010588 0.86376942991484 
C3    C     0.18261413998016 0.99153543951281 0.85054013992330 
C4    C     0.34883292008386 0.08826666970544 0.95739643010564 
C5    C     0.29003602017321 0.14903691000769 0.78661147025684 
C6    C     0.13509141984686 0.98766175888598 0.92292025033293 
C7    C     0.16062481015272 0.92950584950199 0.76058438998002 
C8    C     0.38518339998587 0.21099356985404 0.88308470031503 
C9    C     0.35615228020538 0.23453718091078 0.79881933989906 
C10   C     0.07174694007096 0.84920705972777 0.90545976009129 
C11   C     0.26290269998351 0.13124680126240 0.69763393032897 
C12   C     0.14566458987259 0.14216558911374 0.00919339019673 
C13   C     0.20170917989670 0.00493001965686 0.68503680013088 
C14   C     0.09700586982660 0.79583782019368 0.74539627974190 
C15   C     0.05491182008379 0.74210292973633 0.81569135977883 
C16   C     0.09894341990072 0.13571760014379 0.07654406026790 
C17   C     0.02566259994551 0.83424775887042 0.97664458024368 
C18   C     0.03904987988838 0.97014667971888 0.06145523969554 
