data_stdin
_audit_creation_method 'critic2'
_audit_creation_date 2023-8-11
_chemical_formula_sum 'C18 H12'
_cell_formula_units_Z 2
_cell_length_a        16.5085477016
_cell_length_b         4.8981822566
_cell_length_c         8.2912828045
_cell_angle_alpha        64.0922
_cell_angle_beta        81.7733
_cell_angle_gamma        95.9311
_cell_volume           586.412556
_space_group_crystal_system triclinic
_space_group_IT_number 2
_space_group_name_H-M_alt 'P-1'
_space_group_name_Hall '-P 1'
loop_
_symmetry_equiv_pos_site_id
_symmetry_equiv_pos_as_xyz
 1 'x,y,z'
 2 '-x,-y,-z'
loop_
_atom_site_label
_atom_site_type_symbol
_atom_site_fract_x
_atom_site_fract_y
_atom_site_fract_z
H1    H     0.19805126982421 0.87118257038570 0.64806728016090 
H2    H     0.09463583984553 0.15295339094617 0.50010182937825 
H3    H     0.01478880007363 0.43540454092009 0.63801578935766 
H4    H     0.03828758996676 0.40586304039037 0.93313411032023 
H5    H     0.10286041987098 0.21493483093653 0.19139427939180 
H6    H     0.31430158017487 0.03143676904705 0.58940817059230 
H7    H     0.19436430007210 0.87496304926320 0.36563686003488 
H8    H     0.29235387995669 0.54945192896807 0.39140469039311 
H9    H     0.38667981015569 0.29777617876854 0.26113782040402 
H10   H     0.41779135984882 0.81689811057598 0.46297148984153 
H11   H     0.45065191017441 0.23107458041093 0.00487404019988 
H12   H     0.48250180967356 0.39356342897209 0.67073588068525 
C1    C     0.16798512977192 0.00489815961885 0.70541224010528 
C2    C     0.18712715996019 0.00048297087487 0.86791705951683 
C3    C     0.24964743010411 0.84237377881202 0.95873140051168 
C4    C     0.10764737985222 0.15839634078472 0.62391933031566 
C5    C     0.13585219993506 0.14074398151012 0.95310712932754 
C6    C     0.31436005987719 0.73662326116744 0.87504352956618 
C7    C     0.24667618005634 0.78444578968912 0.14325547962373 
C8    C     0.06220956963113 0.31450712878148 0.70180241044897 
C9    C     0.07559755996754 0.30000418012399 0.86560301996944 
C10   C     0.36038380996398 0.52559860940685 0.98947343040741 
C11   C     0.14192533010718 0.10321507004068 0.13099361942755 
C12   C     0.33965187985754 0.84344697045583 0.68323033940258 
C13   C     0.19275958008563 0.91924822096005 0.22567275957572 
C14   C     0.29777681972247 0.59120478858104 0.24965093063010 
C15   C     0.34977406990582 0.45386339964935 0.17811982036156 
C16   C     0.39937506975030 0.72538477017307 0.61114433967866 
C17   C     0.41903208979288 0.39987452001095 0.91328798978097 
C18   C     0.43743989989564 0.49293594038420 0.72721847954881 
