data_stdin
_audit_creation_method 'critic2'
_audit_creation_date 2023-8-11
_chemical_formula_sum 'C18 H12'
_cell_formula_units_Z 4
_cell_length_a         5.2603763057
_cell_length_b        14.5359589905
_cell_length_c        15.6417890640
_cell_angle_alpha        89.9995
_cell_angle_beta        83.2042
_cell_angle_gamma        89.9991
_cell_volume          1187.640111
_space_group_crystal_system monoclinic
_space_group_IT_number 14
_space_group_name_H-M_alt 'P2_1/c'
_space_group_name_Hall '-P 2ybc'
loop_
_symmetry_equiv_pos_site_id
_symmetry_equiv_pos_as_xyz
 1 'x,y,z'
 2 '-x,-y,-z'
 3 '-x,-1/2+y,-1/2-z'
 4 'x,-1/2-y,-1/2+z'
loop_
_atom_site_label
_atom_site_type_symbol
_atom_site_fract_x
_atom_site_fract_y
_atom_site_fract_z
H1    H     0.33398384022548 0.20318091985680 0.27528025993990 
H2    H     0.64514269993983 0.27018769027230 0.36046585008775 
H3    H     0.90890067944153 0.16936421968217 0.44575941020646 
H4    H     0.82407158013460 0.00133188032491 0.45149855022844 
H5    H     0.57982966978750 0.87024933022817 0.41732734022832 
H6    H     0.41458606948600 0.17154414998255 0.15631356999938 
H7    H     0.23615071037444 0.80069214014707 0.34204689996930 
H8    H     0.92681136941997 0.80986103966136 0.24605391006076 
H9    H     0.69823876961560 0.89417457986437 0.13962482014960 
H10   H     0.22281642069838 0.24152067032533 0.03764826986330 
H11   H     0.66497437995465 0.02464492979981 0.04846450013630 
H12   H     0.83243110048733 0.17256853020615 0.98599520020105 
C1    C     0.44911156069687 0.15742190001139 0.30955671019259 
C2    C     0.41228683925689 0.06097081009707 0.30508876998111 
C3    C     0.24214794053219 0.01681762019833 0.25101397000210 
C4    C     0.62217118911568 0.19574794013688 0.35948047007281 
C5    C     0.54218968950140 0.00549885021833 0.36222054014465 
C6    C     0.13861008929612 0.06059386012452 0.17913579031088 
C7    C     0.17218116023265 0.92383718020811 0.26961276971190 
C8    C     0.76780384943586 0.13946167988475 0.40837792017877 
C9    C     0.72332788947036 0.04588805996317 0.41074161016115 
C10   C     0.93392285946532 0.01628912015735 0.14184129019609 
C11   C     0.48105419020742 0.91041643034064 0.37267807027867 
C12   C     0.24058432073008 0.14172229025845 0.13760873997451 
C13   C     0.29386701064322 0.87210030023001 0.33082602018848 
C14   C     0.97743342042390 0.88036892971739 0.22782318987976 
C15   C     0.85364419020541 0.92629790007935 0.16895892009299 
C16   C     0.13422536922359 0.18073252972297 0.06925985971176 
C17   C     0.82304343936111 0.05931921970401 0.07414325003316 
C18   C     0.91764682013797 0.14124034008152 0.03898014001301 
