data_stdin
_audit_creation_method 'critic2'
_audit_creation_date 2023-8-11
_chemical_formula_sum 'C18 H12'
_cell_formula_units_Z 4
_cell_length_a         6.3145702403
_cell_length_b        24.0540750301
_cell_length_c         7.7943773039
_cell_angle_alpha        89.9984
_cell_angle_beta        90.0004
_cell_angle_gamma        89.9995
_cell_volume          1183.896903
_space_group_crystal_system orthorhombic
_space_group_IT_number 19
_space_group_name_H-M_alt 'P2_12_12_1'
_space_group_name_Hall 'P 2ac 2ab'
loop_
_symmetry_equiv_pos_site_id
_symmetry_equiv_pos_as_xyz
 1 'x,y,z'
 2 '-x,-1/2+y,-1/2-z'
 3 '-1/2+x,-1/2-y,-z'
 4 '-1/2-x,-y,-1/2+z'
loop_
_atom_site_label
_atom_site_type_symbol
_atom_site_fract_x
_atom_site_fract_y
_atom_site_fract_z
H1    H     0.81731218063527 0.86741537015707 0.45635512993687 
H2    H     0.50065757943264 0.89737390988342 0.61037237945044 
H3    H     0.20649204006397 0.94565701007938 0.45462651021311 
H4    H     0.25946956066411 0.97376709991863 0.15125285035181 
H5    H     0.48517189058851 0.98085487994695 0.89846461000468 
H6    H     0.81375433040619 0.79317086003675 0.34586436987940 
H7    H     0.81677921940047 0.95771776995331 0.74720023012653 
H8    H     0.14132336007492 0.90740443998469 0.72600905058948 
H9    H     0.40496844965330 0.84028714002974 0.84251766005204 
H10   H     0.05465262937665 0.71975568003628 0.43392320025458 
H11   H     0.50558501065894 0.77219166012266 0.05232758004663 
H12   H     0.41305966017367 0.71030395018423 0.29518660946984 
C1    C     0.69138831938807 0.88790289006096 0.38559053053579 
C2    C     0.71633318935871 0.89777458018664 0.20719945030850 
C3    C     0.89030449932152 0.87618884011610 0.10583075022676 
C4    C     0.51322021965623 0.90545524980671 0.47340082036452 
C5    C     0.56369688968507 0.93352112000531 0.12704884019475 
C6    C     0.02455870034263 0.83033139982950 0.15829361063534 
C7    C     0.92978356997102 0.90099009019581 0.94348477975984 
C8    C     0.35113960985484 0.93430706994058 0.38726449988840 
C9    C     0.37956184029508 0.94949434980463 0.21815472024736 
C10   C     0.21699808961275 0.82001810020121 0.06586523016940 
C11   C     0.60158945938439 0.95357115984989 0.95772109973983 
C12   C     0.96994389034829 0.79158578999229 0.28813821033745 
C13   C     0.78336889952694 0.93996264004797 0.87280932000978 
C14   C     0.11535196968803 0.88678750014665 0.84863229044910 
C15   C     0.25933354066282 0.84966254984999 0.91142238017601 
C16   C     0.10574568048139 0.74913082985339 0.33585242061368 
C17   C     0.35738070021776 0.77785457007323 0.12151907956977 
C18   C     0.30475992017876 0.74318512995112 0.25625604012268 
