data_stdin
_audit_creation_method 'critic2'
_audit_creation_date 2023-8-11
_chemical_formula_sum 'C18 H12'
_cell_formula_units_Z 4
_cell_length_a         8.4174132742
_cell_length_b         7.2270985302
_cell_length_c        20.9783970710
_cell_angle_alpha        90.0004
_cell_angle_beta       106.4885
_cell_angle_gamma        89.9998
_cell_volume          1223.707738
_space_group_crystal_system monoclinic
_space_group_IT_number 14
_space_group_name_H-M_alt 'P2_1/c'
_space_group_name_Hall '-P 2ybc'
loop_
_symmetry_equiv_pos_site_id
_symmetry_equiv_pos_as_xyz
 1 'x,y,z'
 2 '-x,-y,-z'
 3 '-x,-1/2+y,-1/2-z'
 4 'x,-1/2-y,-1/2+z'
loop_
_atom_site_label
_atom_site_type_symbol
_atom_site_fract_x
_atom_site_fract_y
_atom_site_fract_z
H1    H     0.67561391968681 0.76856691039455 0.85273373989872 
H2    H     0.94045511948515 0.68717099009709 0.93054885996047 
H3    H     0.96260321039310 0.61944731033753 0.04929069995947 
H4    H     0.71507062044014 0.65905130046503 0.09032881981850 
H5    H     0.43441860040964 0.75722737032868 0.07284932024886 
H6    H     0.51580346038794 0.58762031964878 0.79953779985578 
H7    H     0.17630949958750 0.89544624020739 0.99972359990212 
H8    H     0.01187394979015 0.99887936939575 0.89286074987080 
H9    H     0.96307804941671 0.03463934024766 0.77179278980612 
H10   H     0.44674379954183 0.59694687048001 0.67889015995760 
H11   H     0.04018169011801 0.96659258024329 0.67151942995031 
H12   H     0.21578684022553 0.79851622041101 0.61303508002183 
C1    C     0.67921137977377 0.73584169047642 0.90362102976539 
C2    C     0.53289321008801 0.74796785034730 0.92421987979395 
C3    C     0.37171486981904 0.79582726957676 0.88013481980766 
C4    C     0.83046936964684 0.69213219933759 0.94796849994988 
C5    C     0.55112186062734 0.72821085061231 0.99399457023298 
C6    C     0.32934428006726 0.78707303933790 0.80812848996530 
C7    C     0.24889788023153 0.86060161027947 0.90923896999601 
C8    C     0.84354565012853 0.65690572950346 0.01522791017093 
C9    C     0.70580102964440 0.67688021010941 0.03782181976644 
C10   C     0.18434133004237 0.88283581943017 0.76950303977243 
C11   C     0.41660741977069 0.77321565957646 0.01970290009350 
C12   C     0.41744124042296 0.67955833001835 0.77276809005475 
C13   C     0.27392968983270 0.84601365001885 0.97927067983292 
C14   C     0.10077193050494 0.94440009972681 0.86874361001631 
C15   C     0.07303302005992 0.96342834957215 0.80172578980389 
C16   C     0.37638642034151 0.68225723035332 0.70401078979842 
C17   C     0.14825254007729 0.88808547068989 0.69938414982346 
C18   C     0.24429363957009 0.79233515058814 0.66693517006684 
