data_stdin
_audit_creation_method 'critic2'
_audit_creation_date 2023-8-11
_chemical_formula_sum 'C18 H12'
_cell_formula_units_Z 8
_cell_length_a        19.7296774326
_cell_length_b         5.1494577512
_cell_length_c        24.3735164490
_cell_angle_alpha        90.0025
_cell_angle_beta       102.7432
_cell_angle_gamma        89.9884
_cell_volume          2415.285532
_space_group_crystal_system monoclinic
_space_group_IT_number 15
_space_group_name_H-M_alt 'C2/c'
_space_group_name_Hall '-C 2yc'
loop_
_symmetry_equiv_pos_site_id
_symmetry_equiv_pos_as_xyz
 1 'x,y,z'
 2 '-1/2-x,-1/2-y,-z'
 3 '-1/2-x,-1/2+y,-1/2-z'
 4 '-1/2+x,-1/2-y,-1/2+z'
 5 '-1/2+x,-1/2+y,z'
 6 '-x,-y,-z'
 7 '-x,y,-1/2-z'
 8 'x,-y,-1/2+z'
loop_
_atom_site_label
_atom_site_type_symbol
_atom_site_fract_x
_atom_site_fract_y
_atom_site_fract_z
H1    H     0.26074686687751 0.37022254216616 0.96842128571091 
H2    H     0.30933599590460 0.69151038033275 0.03951502636512 
H3    H     0.42047036135613 0.92016737880683 0.03639002142500 
H4    H     0.48824863056694 0.77529365499647 0.96730244923693 
H5    H     0.50594254338641 0.47616230254453 0.89518851084485 
H6    H     0.19986501809739 0.47465872496496 0.89663010850349 
H7    H     0.46559048628255 0.10091337020951 0.83243555795652 
H8    H     0.37954570540917 0.78020188193420 0.79432746769381 
H9    H     0.25881651931832 0.61866605978770 0.77646208562762 
H10   H     0.07847382986986 0.35544382752590 0.86339563381878 
H11   H     0.13887160985231 0.69449568698940 0.77693340322341 
H12   H     0.04560655042412 0.95876981060171 0.80404096579245 
C1    C     0.30884969084004 0.46630471148017 0.96581383658982 
C2    C     0.34320662265288 0.39429384653634 0.92283949550717 
C3    C     0.31539483111743 0.21017731612913 0.87864477395059 
C4    C     0.33663447262065 0.64790541130290 0.00639606613553 
C5    C     0.41131574213525 0.49919445579844 0.92635005153019 
C6    C     0.24241340714221 0.14265515782064 0.86098985644392 
C7    C     0.36247872611836 0.09286896272340 0.84965417429319 
C8    C     0.39992655617338 0.77157043619441 0.00542707785007 
C9    C     0.43712742778297 0.69380309241558 0.96650342200991 
C10   C     0.22281534864393 0.92573196665975 0.82394815126378 
C11   C     0.45394498176451 0.39681360974470 0.89131557221473 
C12   C     0.18776382610717 0.29451133211577 0.87356183956593 
C13   C     0.43151199921018 0.19123764117566 0.85661457790640 
C14   C     0.34117081664250 0.87663522944166 0.81331230773298 
C15   C     0.27443808047981 0.78731023715758 0.80306801649704 
C16   C     0.11865749193590 0.22957514677105 0.85365908413961 
C17   C     0.15177648393969 0.86072654660795 0.80487094255163 
C18   C     0.10014669649276 0.00830776178900 0.81972344816439 
