data_stdin
_audit_creation_method 'critic2'
_audit_creation_date 2023-8-11
_chemical_formula_sum 'C18 H12'
_cell_formula_units_Z 4
_cell_length_a         9.7224216105
_cell_length_b        12.9328104100
_cell_length_c        10.9685831536
_cell_angle_alpha        89.9999
_cell_angle_beta        57.9433
_cell_angle_gamma        90.0003
_cell_volume          1168.879289
_space_group_crystal_system monoclinic
_space_group_IT_number 14
_space_group_name_H-M_alt 'P2_1/c'
_space_group_name_Hall '-P 2ybc'
loop_
_symmetry_equiv_pos_site_id
_symmetry_equiv_pos_as_xyz
 1 'x,y,z'
 2 '-x,-y,-z'
 3 '-x,-1/2+y,-1/2-z'
 4 'x,-1/2-y,-1/2+z'
loop_
_atom_site_label
_atom_site_type_symbol
_atom_site_fract_x
_atom_site_fract_y
_atom_site_fract_z
H1    H     0.22108222027987 0.44264444028726 0.50105208003200 
H2    H     0.00410784025031 0.32208125969351 0.65628908036062 
H3    H     0.82631234000570 0.24716169038177 0.57836826963415 
H4    H     0.86279733021357 0.30225507017587 0.34641547988171 
H5    H     0.99435400075692 0.41277261979463 0.13234759947124 
H6    H     0.44790919001074 0.39510111977831 0.34926927996699 
H7    H     0.17895065946779 0.55771349034914 0.99868526043851 
H8    H     0.38377756983689 0.68181711978149 0.96291318968112 
H9    H     0.58037345998717 0.74881604032091 0.01994821020071 
H10   H     0.67600332029496 0.44590485018517 0.37066814023874 
H11   H     0.73059180996927 0.72700782004036 0.14001047001879 
H12   H     0.81456769998911 0.61653017982602 0.27279817036226 
C1    C     0.15041348975452 0.40764590994117 0.46177317958333 
C2    C     0.18090158026814 0.43694902010656 0.32496133952046 
C3    C     0.30676038037589 0.50929414018289 0.23125654022471 
C4    C     0.02613434032534 0.34064125019089 0.55060449962397 
C5    C     0.06943352022081 0.40065537983667 0.28652745997173 
C6    C     0.44378267965571 0.53552746028591 0.24337936984513 
C7    C     0.29385646023295 0.55890946963642 0.12240150009988 
C8    C     0.92487666037286 0.29919562005652 0.50718136010492 
C9    C     0.94587003991277 0.32971930025385 0.37764093016739 
C10   C     0.53533764966119 0.62702885006747 0.17385698030122 
C11   C     0.07664476969167 0.44249114035040 0.16299316013109 
C12   C     0.50257029033035 0.47057266037722 0.31001219980410 
C13   C     0.17938617947141 0.52239443000947 0.08861831015798 
C14   C     0.39556984992723 0.64517326987482 0.04639872020139 
C15   C     0.50551342952348 0.68193045963995 0.07722939029926 
C16   C     0.63373659934618 0.49851999989165 0.31985549036344 
C17   C     0.66404982022413 0.65641191006171 0.19137634034286 
C18   C     0.71187137014348 0.59408091997371 0.26461447014145 
