data_stdin
_audit_creation_method 'critic2'
_audit_creation_date 2023-8-11
_chemical_formula_sum 'C18 H12'
_cell_formula_units_Z 2
_cell_length_a        19.0756320338
_cell_length_b         3.7801842102
_cell_length_c         8.0894036903
_cell_angle_alpha        89.9998
_cell_angle_beta        90.0097
_cell_angle_gamma        89.9994
_cell_volume           583.322062
_space_group_crystal_system monoclinic
_space_group_IT_number 4
_space_group_name_H-M_alt 'P2_1'
_space_group_name_Hall 'P 2yb'
loop_
_symmetry_equiv_pos_site_id
_symmetry_equiv_pos_as_xyz
 1 'x,y,z'
 2 '-x,-1/2+y,-z'
loop_
_atom_site_label
_atom_site_type_symbol
_atom_site_fract_x
_atom_site_fract_y
_atom_site_fract_z
H1    H     0.78780885008633 0.98494814977511 0.10020941998203 
H2    H     0.90078891006209 0.88785885935363 0.96650864999590 
H3    H     0.99902872018516 0.59864718021282 0.11974735942615 
H4    H     0.98327592979886 0.44475445868128 0.41590914939270 
H5    H     0.91379918012843 0.45753801055675 0.66779462983093 
H6    H     0.71231995977976 0.60618946090834 0.09995444974840 
H7    H     0.80653708019689 0.65211560899331 0.81505949022642 
H8    H     0.69356572982617 0.93569689046226 0.81512439941281 
H9    H     0.58629541985621 0.13088195871160 0.66795744954497 
H10   H     0.59934612022673 0.70408592945865 0.96622061050546 
H11   H     0.51684683019586 0.14503742124648 0.41601231027872 
H12   H     0.50112050011672 0.99282078030906 0.11962988983443 
C1    C     0.82869231008422 0.84685448947225 0.16776194032839 
C2    C     0.81643771023348 0.74437255062464 0.33383888014177 
C3    C     0.75005464012166 0.79477057107370 0.41729737940672 
C4    C     0.89314017003736 0.79795228090103 0.09308040947874 
C5    C     0.87528327003336 0.61402330085950 0.42590147964093 
C6    C     0.68367844011594 0.84560164938749 0.33381519039198 
C7    C     0.75005138982939 0.79437167053015 0.59251275944847 
C8    C     0.94880811007709 0.64105441008218 0.18039139003931 
C9    C     0.93993696986649 0.55456922057153 0.34481561987285 
C10   C     0.62482714992385 0.97555331119210 0.42594541035161 
C11   C     0.86921788989811 0.56517768103078 0.60015652020563 
C12   C     0.67143083025160 0.74395850988358 0.16761097014091 
C13   C     0.80990024004808 0.67008439069144 0.68088754958062 
C14   C     0.69019825996696 0.91828256966009 0.68093968956588 
C15   C     0.63088263017281 0.02356373879554 0.60025650030347 
C16   C     0.60699298991620 0.79333734002072 0.09290198029356 
C17   C     0.56018566016903 0.03552608997061 0.34484196018947 
C18   C     0.55132670022547 0.94993762983835 0.18030446959529 
