data_stdin
_audit_creation_method 'critic2'
_audit_creation_date 2023-8-11
_chemical_formula_sum 'C18 H12'
_cell_formula_units_Z 4
_cell_length_a         7.2876321654
_cell_length_b        17.6068661104
_cell_length_c         9.7954980823
_cell_angle_alpha        90.0001
_cell_angle_beta        98.5370
_cell_angle_gamma        89.9991
_cell_volume          1242.957373
_space_group_crystal_system monoclinic
_space_group_IT_number 14
_space_group_name_H-M_alt 'P2_1/c'
_space_group_name_Hall '-P 2ybc'
loop_
_symmetry_equiv_pos_site_id
_symmetry_equiv_pos_as_xyz
 1 'x,y,z'
 2 '-x,-y,-z'
 3 '-x,-1/2+y,-1/2-z'
 4 'x,-1/2-y,-1/2+z'
loop_
_atom_site_label
_atom_site_type_symbol
_atom_site_fract_x
_atom_site_fract_y
_atom_site_fract_z
H1    H     0.85406873042569 0.77910382005931 0.54471857015666 
H2    H     0.96854586012011 0.77290503982086 0.79044118044480 
H3    H     0.20492422020720 0.86606542021735 0.90032516018732 
H4    H     0.34071712069836 0.95912297983297 0.75269087054029 
H5    H     0.36766722995621 0.01091788999651 0.52894216961442 
H6    H     0.63903382985638 0.84231287992538 0.47397503005942 
H7    H     0.28962600036324 0.00520373978980 0.27343226000918 
H8    H     0.10977272943874 0.95570148978502 0.06930946992479 
H9    H     0.83180819993787 0.88857025021593 0.95156738019645 
H10   H     0.34703699934334 0.79327061990718 0.35288473974000 
H11   H     0.53814609069250 0.82668650973857 0.96270674053246 
H12   H     0.29691296056686 0.77845108979425 0.09771408980691 
C1    C     0.95384280957762 0.82138263978701 0.58888622964007 
C2    C     0.01858741968122 0.87719808027356 0.50309520986850 
C3    C     0.94846453049638 0.88639450005490 0.35753613003644 
C4    C     0.02049760024561 0.81716332978750 0.72859235982773 
C5    C     0.16900963974250 0.92443536994213 0.56432771000197 
C6    C     0.77046235998393 0.85814426976783 0.29065941044773 
C7    C     0.05971683057889 0.92744157008268 0.27563365973994 
C8    C     0.15644518931843 0.86850855012789 0.78988177948465 
C9    C     0.23131396058157 0.92039118980947 0.70799422047138 
C10   C     0.73136277031050 0.85811056980783 0.14251157965155 
C11   C     0.25887494995758 0.97351018019069 0.47951807003717 
C12   C     0.62408341017219 0.83563555010075 0.36272814961422 
C13   C     0.21353565968768 0.97126753997826 0.33936826013486 
C14   C     0.01583103066266 0.92681646013793 0.12884594011421 
C15   C     0.86129158066422 0.89069378974118 0.06395125963478 
C16   C     0.45740506026736 0.80836038026640 0.29423868990450 
C17   C     0.56149612934007 0.82801738011054 0.07520380992150 
C18   C     0.42731628934499 0.80185027011316 0.14946911041344 
