data_stdin
_audit_creation_method 'critic2'
_audit_creation_date 2023-8-11
_chemical_formula_sum 'C18 H12'
_cell_formula_units_Z 4
_cell_length_a        10.5022379171
_cell_length_b        11.8070943900
_cell_length_c        11.2142132722
_cell_angle_alpha        90.0000
_cell_angle_beta        61.9347
_cell_angle_gamma        90.0000
_cell_volume          1227.058416
_space_group_crystal_system monoclinic
_space_group_IT_number 14
_space_group_name_H-M_alt 'P2_1/c'
_space_group_name_Hall '-P 2ybc'
loop_
_symmetry_equiv_pos_site_id
_symmetry_equiv_pos_as_xyz
 1 'x,y,z'
 2 '-x,-y,-z'
 3 '-x,-1/2+y,-1/2-z'
 4 'x,-1/2-y,-1/2+z'
loop_
_atom_site_label
_atom_site_type_symbol
_atom_site_fract_x
_atom_site_fract_y
_atom_site_fract_z
H1    H     0.83039555012976 0.90989883020669 0.27130101955531 
H2    H     0.57150051022406 0.91337439021859 0.42655699049213 
H3    H     0.47960372009200 0.88877264990455 0.67454211968423 
H4    H     0.65405961023459 0.84352753960480 0.76060292038806 
H5    H     0.89334453975068 0.79974850985283 0.72185872978832 
H6    H     0.94902883987255 0.04442313968878 0.22267988986377 
H7    H     0.15254033945750 0.76943847986822 0.56365777029750 
H8    H     0.35190475026171 0.77238897022439 0.34321673954838 
H9    H     0.46627974999569 0.82875183031075 0.10163390953661 
H10   H     0.07585865007765 0.12377209981652 0.99692036954730 
H11   H     0.45820016951111 0.93818702978301 0.92340204032529 
H12   H     0.33144024995155 0.06836970004584 0.84089240043943 
C1    C     0.79417680025096 0.90144909992406 0.37883017975286 
C2    C     0.89711420054939 0.88461359027315 0.42550664972100 
C3    C     0.05206084945582 0.88527722997023 0.33862007042024 
C4    C     0.64739132953513 0.90181653999893 0.46632670042969 
C5    C     0.84187265989032 0.85720110024560 0.56585414014086 
C6    C     0.12352665024182 0.93529904987450 0.20480200989237 
C7    C     0.14012994046984 0.83512826990472 0.38908603976189 
C8    C     0.59512346022978 0.88592593962414 0.60612868982241 
C9    C     0.69161156000193 0.86184766013406 0.65394608988921 
C10   C     0.27362843046023 0.91164358036797 0.11876447983336 
C11   C     0.93749642037926 0.81964993958227 0.61495476016262 
C12   C     0.05742614034935 0.01469899992201 0.15629142015176 
C13   C     0.08053667034284 0.80422350002327 0.52802480989923 
C14   C     0.28979402986238 0.81528042985007 0.30150169022227 
C15   C     0.35303026033457 0.84713598977180 0.16893692992056 
C16   C     0.13033260014031 0.06170618980464 0.02862600050188 
C17   C     0.34452101013943 0.95790023007570 0.98682006013267 
C18   C     0.27419736952222 0.03117511023340 0.94138705039886 
