data_stdin
_audit_creation_method 'critic2'
_audit_creation_date 2023-8-11
_chemical_formula_sum 'C18 H12'
_cell_formula_units_Z 4
_cell_length_a        10.3323295620
_cell_length_b         3.8762191337
_cell_length_c        29.9106714685
_cell_angle_alpha        89.9992
_cell_angle_beta        74.9256
_cell_angle_gamma        89.9980
_cell_volume          1156.711171
_space_group_crystal_system monoclinic
_space_group_IT_number 14
_space_group_name_H-M_alt 'P2_1/c'
_space_group_name_Hall '-P 2ybc'
loop_
_symmetry_equiv_pos_site_id
_symmetry_equiv_pos_as_xyz
 1 'x,y,z'
 2 '-x,-y,-z'
 3 '-x,-1/2+y,-1/2-z'
 4 'x,-1/2-y,-1/2+z'
loop_
_atom_site_label
_atom_site_type_symbol
_atom_site_fract_x
_atom_site_fract_y
_atom_site_fract_z
H1    H     0.57076053995198 0.03801933961766 0.95572962014010 
H2    H     0.66623404981634 0.24339341043479 0.01746704000843 
H3    H     0.89016930981440 0.53134803118921 0.99857964014116 
H4    H     0.02437560959619 0.55810422931230 0.91682847991271 
H5    H     0.05647278034982 0.41209921060988 0.83609346009792 
H6    H     0.46042295044201 0.33726542023145 0.92853108993284 
H7    H     0.97502269020959 0.12158767007949 0.77451511003366 
H8    H     0.80403548967829 0.84304411059970 0.74787890015389 
H9    H     0.56694915953726 0.68008272963184 0.75773547010452 
H10   H     0.22521398000785 0.24335012022299 0.93187636007536 
H11   H     0.33557636977968 0.72269592964661 0.80048267015292 
H12   H     0.15868060035233 0.92904237029185 0.86851726996385 
C1    C     0.66622474032749 0.17185989965642 0.94643058006892 
C2    C     0.73545907973919 0.20774794977991 0.89905869011658 
C3    C     0.68113546960269 0.10354596058290 0.86101959996663 
C4    C     0.72103538974419 0.28268898091008 0.98147884995970 
C5    C     0.87071350999797 0.33271170125077 0.88910821008630 
C6    C     0.53961864970760 0.05632587047923 0.86447988992973 
C7    C     0.77285602040127 0.05103771072802 0.81712840003923 
C8    C     0.84873522972782 0.43615113010431 0.97099122014240 
C9    C     0.92288022975394 0.45457840996595 0.92546904995999 
C10   C     0.49981949960277 0.89816373988339 0.82672768994636 
C11   C     0.95432857981407 0.31420056098021 0.84301435011628 
C12   C     0.43555313951989 0.18366159950269 0.90162147010929 
C13   C     0.90898906035685 0.15855194063672 0.80906487991067 
C14   C     0.72951268993400 0.89511774874094 0.78033473003178 
C15   C     0.59859558046138 0.80759411952136 0.78553778998870 
C16   C     0.30182251039987 0.13729043881453 0.90304988984898 
C17   C     0.36232128975056 0.84927526086886 0.82936426007202 
C18   C     0.26420103042354 0.96326037941984 0.86713053991578 
