data_stdin
_audit_creation_method 'critic2'
_audit_creation_date 2023-8-11
_chemical_formula_sum 'C18 H12'
_cell_formula_units_Z 8
_cell_length_a         8.2762215600
_cell_length_b        19.9903823301
_cell_length_c        14.1894928300
_cell_angle_alpha        90.0000
_cell_angle_beta        90.0000
_cell_angle_gamma        89.9998
_cell_volume          2347.578275
_space_group_crystal_system orthorhombic
_space_group_IT_number 61
_space_group_name_H-M_alt 'Pbca'
_space_group_name_Hall '-P 2ac 2ab'
loop_
_symmetry_equiv_pos_site_id
_symmetry_equiv_pos_as_xyz
 1 'x,y,z'
 2 '-x,-y,-z'
 3 '-1/2-x,-y,-1/2+z'
 4 '-1/2+x,y,-1/2-z'
 5 '-1/2+x,-1/2-y,-z'
 6 '-1/2-x,-1/2+y,z'
 7 '-x,-1/2+y,-1/2-z'
 8 'x,-1/2-y,-1/2+z'
loop_
_atom_site_label
_atom_site_type_symbol
_atom_site_fract_x
_atom_site_fract_y
_atom_site_fract_z
H1    H     0.15046956465412 0.89292036573508 0.31545226950879 
H2    H     0.29001874275042 0.00050223078501 0.30862330448728 
H3    H     0.15345511595531 0.10466856727204 0.36654017356987 
H4    H     0.86994341146913 0.09912785810528 0.42039659923272 
H5    H     0.61721633003541 0.03873764369201 0.43542142059394 
H6    H     0.14765096013799 0.83103898290304 0.43088408511748 
H7    H     0.45886045995083 0.93528818337024 0.40976097536451 
H8    H     0.44118772347573 0.82063893999407 0.36124805876258 
H9    H     0.56937885053364 0.71212508245933 0.32330574330502 
H10   H     0.26056948784559 0.71815390636739 0.42690747575940 
H11   H     0.80841423080509 0.64103780755168 0.32391936010403 
H12   H     0.09414178798002 0.62217089582527 0.36692254615267 
C1    C     0.08999532587088 0.93701951833784 0.34284965879433 
C2    C     0.92855300777698 0.93172877463934 0.37571584778665 
C3    C     0.83903408551999 0.86941193464242 0.37852296824676 
C4    C     0.16858507498967 0.99807352137723 0.33800242740850 
C5    C     0.84657973695875 0.99275383421192 0.39906937868276 
C6    C     0.91201360087130 0.80352589619389 0.37638382379747 
C7    C     0.66774820762514 0.87302147244903 0.38233383276956 
C8    C     0.09088884550145 0.05685049758808 0.36832611847721 
C9    C     0.93251660916461 0.05386209858405 0.39834920129211 
C10   C     0.81278655493181 0.74700359763994 0.35315671511564 
C11   C     0.67714473887086 0.99207620940051 0.41685882975646 
C12   C     0.07397740297966 0.79044457167164 0.40357355946768 
C13   C     0.59004039213887 0.93484672814809 0.40384329123934 
C14   C     0.57214301407204 0.81525524206442 0.36283858872736 
C15   C     0.64251585098546 0.75514722233473 0.34310852907816 
C16   C     0.13782806395129 0.72650380566462 0.40180781550976 
C17   C     0.88377600314219 0.68276922083824 0.34630399319915 
C18   C     0.04358461944137 0.67237130262163 0.37005901949428 
