data_stdin
_audit_creation_method 'critic2'
_audit_creation_date 2023-8-11
_chemical_formula_sum 'C18 H12'
_cell_formula_units_Z 4
_cell_length_a         8.0891760877
_cell_length_b        12.4754125900
_cell_length_c        12.8969854309
_cell_angle_alpha        90.0000
_cell_angle_beta        68.3320
_cell_angle_gamma        90.0000
_cell_volume          1209.543763
_space_group_crystal_system monoclinic
_space_group_IT_number 14
_space_group_name_H-M_alt 'P2_1/c'
_space_group_name_Hall '-P 2ybc'
loop_
_symmetry_equiv_pos_site_id
_symmetry_equiv_pos_as_xyz
 1 'x,y,z'
 2 '-x,-y,-z'
 3 '-x,-1/2+y,-1/2-z'
 4 'x,-1/2-y,-1/2+z'
loop_
_atom_site_label
_atom_site_type_symbol
_atom_site_fract_x
_atom_site_fract_y
_atom_site_fract_z
H1    H     0.70660480977702 0.82907096034774 0.43912391991699 
H2    H     0.57412622977225 0.73771525989359 0.61819400027871 
H3    H     0.75496163963288 0.70128980030821 0.73563466959913 
H4    H     0.07589700982736 0.74493743014239 0.66157870973085 
H5    H     0.33985400063981 0.80164929998887 0.51023319959056 
H6    H     0.70030554029353 0.98301101009844 0.42823159980307 
H7    H     0.48563110041389 0.87521890986167 0.31885480008597 
H8    H     0.47399160027336 0.95506997003554 0.15525679992680 
H9    H     0.30550112988566 0.03441431023743 0.04704062987476 
H10   H     0.54569682023295 0.07889419020769 0.32596098997554 
H11   H     0.03092263028424 0.09853550964290 0.03867602036212 
H12   H     0.70719683066363 0.13393815984277 0.12808640977166 
C1    C     0.78673055015503 0.81752442985883 0.48963840026889 
C2    C     0.96665973976623 0.85199407026485 0.44870292978867 
C3    C     0.04999706003045 0.91211744960254 0.34605439038162 
C4    C     0.71220542961405 0.76393742013997 0.59027454968343 
C5    C     0.07320291016042 0.81789229961430 0.51028473035680 
C6    C     0.95400243048458 0.97243919971075 0.29011148964893 
C7    C     0.23888714954402 0.91318558989764 0.29796744012329 
C8    C     0.81404954993240 0.74176845985592 0.65570428999585 
C9    C     0.99289789943837 0.76657275019846 0.61477191029308 
C10   C     0.04858918949105 0.01346174019814 0.17996717023642 
C11   C     0.26157882932140 0.82996380988751 0.46273545037642 
C12   C     0.77189611966447 0.00094767966347 0.34078631031076 
C13   C     0.34140939004259 0.87082608991820 0.35788198991762 
C14   C     0.32907835992536 0.95762984018411 0.18960361978694 
C15   C     0.23693760987997 0.00228168031923 0.13056991020765 
C16   C     0.68523778039369 0.05774193027023 0.28380481975453 
C17   C     0.95624671001919 0.06958343032328 0.12265457013201 
C18   C     0.77629213953213 0.08972779967682 0.17257496003865 
