data_stdin
_audit_creation_method 'critic2'
_audit_creation_date 2023-8-11
_chemical_formula_sum 'C18 H12'
_cell_formula_units_Z 4
_cell_length_a         7.7759250350
_cell_length_b        14.7439297929
_cell_length_c        15.8937778346
_cell_angle_alpha        89.9995
_cell_angle_beta       139.7207
_cell_angle_gamma        90.0010
_cell_volume          1178.069479
_space_group_crystal_system monoclinic
_space_group_IT_number 14
_space_group_name_H-M_alt 'P2_1/c'
_space_group_name_Hall '-P 2ybc'
loop_
_symmetry_equiv_pos_site_id
_symmetry_equiv_pos_as_xyz
 1 'x,y,z'
 2 '-x,-y,-z'
 3 '-x,-1/2+y,-1/2-z'
 4 'x,-1/2-y,-1/2+z'
loop_
_atom_site_label
_atom_site_type_symbol
_atom_site_fract_x
_atom_site_fract_y
_atom_site_fract_z
H1    H     0.14542582977247 0.69689329014012 0.22929972998653 
H2    H     0.88249493028340 0.80952471999139 0.20628843010098 
H3    H     0.66417871965458 0.93735254974427 0.04684976987800 
H4    H     0.73958341983301 0.95269968998263 0.92106637026607 
H5    H     0.95712125060917 0.90378569984299 0.87401940013556 
H6    H     0.97029499989364 0.58843111025716 0.12310939998083 
H7    H     0.26599189946179 0.79913139991904 0.91573006993787 
H8    H     0.52588765007587 0.66393546002706 0.00768853045306 
H9    H     0.67272167041537 0.51763207983460 0.12434698994650 
H10   H     0.07128770122223 0.43603405999691 0.20880605040322 
H11   H     0.62698394039166 0.40163907991612 0.21341466006688 
H12   H     0.41048650986594 0.34100812979772 0.26095312002662 
C1    C     0.04354533877712 0.74903935975326 0.15546509961784 
C2    C     0.07033908096831 0.75080206995618 0.07664257022285 
C3    C     0.20768918109588 0.68140671001739 0.08000761039035 
C4    C     0.90015644025904 0.81451848993910 0.14477177993783 
C5    C     0.96867997019983 0.82920789997592 0.99590330974042 
C6    C     0.25914331978441 0.59040370988770 0.12960520022651 
C7    C     0.29021320020767 0.70341030992637 0.02782298015449 
C8    C     0.77957133056967 0.88666520984647 0.05593228021365 
C9    C     0.81891763863152 0.89467456988552 0.98488803951826 
C10   C     0.43453731964207 0.53247280032018 0.14835510998117 
C11   C     0.03386970990816 0.84358873018515 0.93394919957080 
C12   C     0.12769518003025 0.55118775977728 0.15056251006070 
C13   C     0.20072498975963 0.78517909991163 0.95543122998347 
C14   C     0.45942447927817 0.64321767028043 0.04523584968447 
C15   C     0.53921399043766 0.56254766979614 0.10886846013760 
C16   C     0.18207180090953 0.46387553999833 0.19737716032525 
C17   C     0.49024274066708 0.44378193991578 0.19839973027880 
C18   C     0.36906181967710 0.40984847021785 0.22450256978577 
