data_stdin
_audit_creation_method 'critic2'
_audit_creation_date 2023-8-11
_chemical_formula_sum 'C18 H12'
_cell_formula_units_Z 4
_cell_length_a        10.5040849573
_cell_length_b         7.4926976000
_cell_length_c        15.5461739431
_cell_angle_alpha        90.0000
_cell_angle_beta        70.6645
_cell_angle_gamma        90.0000
_cell_volume          1154.532520
_space_group_crystal_system monoclinic
_space_group_IT_number 14
_space_group_name_H-M_alt 'P2_1/c'
_space_group_name_Hall '-P 2ybc'
loop_
_symmetry_equiv_pos_site_id
_symmetry_equiv_pos_as_xyz
 1 'x,y,z'
 2 '-x,-y,-z'
 3 '-x,-1/2+y,-1/2-z'
 4 'x,-1/2-y,-1/2+z'
loop_
_atom_site_label
_atom_site_type_symbol
_atom_site_fract_x
_atom_site_fract_y
_atom_site_fract_z
H1    H     0.77814507630269 0.21676588555778 0.83059127745754 
H2    H     0.56522753471749 0.14787715306311 0.95154132423116 
H3    H     0.37702750827860 0.99768685645894 0.91336382422874 
H4    H     0.39935551640024 0.94870517803019 0.75157677205883 
H5    H     0.52103855554261 0.99102024057824 0.59037400688170 
H6    H     0.92418835381043 0.02449584007147 0.78765790756057 
H7    H     0.72038001765772 0.10924465955228 0.46775311015099 
H8    H     0.94199693270543 0.24027712413594 0.41694420918336 
H9    H     0.15284863794438 0.32370236807532 0.44451087046055 
H10   H     0.14633709271646 0.06012442928761 0.80326429531516 
H11   H     0.29199108666840 0.31724029835257 0.54165783005315 
H12   H     0.33017076978308 0.22336534002482 0.68412359935719 
C1    C     0.69794185772638 0.15097304318669 0.81302480434375 
C2    C     0.71733759835088 0.11270876138821 0.72018927845869 
C3    C     0.84199088834092 0.14791015004285 0.64673057000602 
C4    C     0.57721323695861 0.11396627270501 0.88111771385256 
C5    C     0.60281138016788 0.04933586576492 0.69848289669048 
C6    C     0.97242293964350 0.16489987787684 0.65865545843350 
C7    C     0.83629057179343 0.16267383104280 0.55704595431793 
C8    C     0.47021595447774 0.03366285931472 0.85973994174600 
C9    C     0.48280041752122 0.00453997405997 0.76957414655408 
C10   C     0.08315732390111 0.23633787372214 0.58546240873292 
C11   C     0.60824335329313 0.04215138621563 0.60565480264722 
C12   C     0.00101129764638 0.09860300675869 0.73578037690260 
C13   C     0.71811774699482 0.10700355910677 0.53828059125204 
C14   C     0.94996999571803 0.22746949423690 0.48475527917396 
C15   C     0.06702292690510 0.27180009724779 0.49959490280456 
C16   C     0.12765140566176 0.11651099663659 0.74398642433140 
C17   C     0.21011845100774 0.25897962065360 0.59725924152416 
C18   C     0.23224487084712 0.20338443592335 0.67584535991743 
