data_stdin
_audit_creation_method 'critic2'
_audit_creation_date 2023-8-11
_chemical_formula_sum 'C18 H12'
_cell_formula_units_Z 4
_cell_length_a        10.2752263690
_cell_length_b        15.0277608900
_cell_length_c         8.0610881686
_cell_angle_alpha        89.9999
_cell_angle_beta        80.0186
_cell_angle_gamma        89.9999
_cell_volume          1225.901594
_space_group_crystal_system monoclinic
_space_group_IT_number 14
_space_group_name_H-M_alt 'P2_1/c'
_space_group_name_Hall '-P 2ybc'
loop_
_symmetry_equiv_pos_site_id
_symmetry_equiv_pos_as_xyz
 1 'x,y,z'
 2 '-x,-y,-z'
 3 '-x,-1/2+y,-1/2-z'
 4 'x,-1/2-y,-1/2+z'
loop_
_atom_site_label
_atom_site_type_symbol
_atom_site_fract_x
_atom_site_fract_y
_atom_site_fract_z
H1    H     0.53054546966767 0.70512810019313 0.82855154938942 
H2    H     0.71285484018350 0.71018213029639 0.59059418989508 
H3    H     0.92665444032131 0.63345889030764 0.60630424975195 
H4    H     0.95920534030942 0.56548578980390 0.87724664974329 
H5    H     0.88515483982519 0.54003552967988 0.17467429044866 
H6    H     0.39788885041335 0.60816146993983 0.85900600937758 
H7    H     0.71254381012655 0.55393007018444 0.42938918981867 
H8    H     0.49716466948985 0.59598423006789 0.56332895047158 
H9    H     0.26832829000316 0.64623843998218 0.55306119036365 
H10   H     0.16687821964898 0.64307192013464 0.85420266982517 
H11   H     0.09454591977403 0.67480115022246 0.39212704971648 
H12   H     0.01277160984576 0.68173067022265 0.12023887978206 
C1    C     0.62083267961712 0.66945144012347 0.83777532986568 
C2    C     0.63256810958370 0.62502553999569 0.98994516974144 
C3    C     0.52633166055417 0.61831241982691 0.13376518946857 
C4    C     0.72492842002006 0.67371283029744 0.70361461004988 
C5    C     0.76116067949368 0.59242745014685 0.00534054045656 
C6    C     0.38782138017263 0.63194076013174 0.12617311998263 
C7    C     0.56057922987994 0.59877759973961 0.29313320989222 
C8    C     0.84630899018781 0.63248774998821 0.71395902001704 
C9    C     0.86405203970989 0.59383299977008 0.86382898941289 
C10   C     0.29574085008482 0.64432652998800 0.27997362016267 
C11   C     0.78655090051349 0.56377376011452 0.16527346947847 
C12   C     0.33507498971415 0.62848442994303 0.97509363941515 
C13   C     0.69143425963999 0.57098020008900 0.30548930984708 
C14   C     0.46522325006820 0.60832361979755 0.44349470991718 
C15   C     0.33891379980796 0.63462747020760 0.43772212052743 
C16   C     0.20330237002213 0.64579464011615 0.97303508028903 
C17   C     0.16169322968066 0.66317526978518 0.27393537943385 
C18   C     0.11596392026533 0.66626274999276 0.12272523003691 
