data_stdin
_audit_creation_method 'critic2'
_audit_creation_date 2023-8-11
_chemical_formula_sum 'C18 H12'
_cell_formula_units_Z 4
_cell_length_a         5.4167910397
_cell_length_b        17.6583307868
_cell_length_c        13.3146702416
_cell_angle_alpha        89.9990
_cell_angle_beta        67.9440
_cell_angle_gamma        89.9993
_cell_volume          1180.365096
_space_group_crystal_system monoclinic
_space_group_IT_number 9
_space_group_name_H-M_alt 'Cc'
_space_group_name_Hall 'C -2yc'
loop_
_symmetry_equiv_pos_site_id
_symmetry_equiv_pos_as_xyz
 1 'x,y,z'
 2 '-1/2+x,-1/2-y,-1/2+z'
 3 '-1/2+x,-1/2+y,z'
 4 'x,-y,-1/2+z'
loop_
_atom_site_label
_atom_site_type_symbol
_atom_site_fract_x
_atom_site_fract_y
_atom_site_fract_z
H1    H     0.00189848927414 0.53277445987087 0.01389228997467 
H2    H     0.28805101010049 0.64303917024907 0.99635183012137 
H3    H     0.58508661037103 0.65082020009459 0.10066326030406 
H4    H     0.56533557006032 0.54897377013499 0.23270571018725 
H5    H     0.36707349963911 0.43622000987098 0.32956998966050 
H6    H     0.11613238057411 0.44576175989235 0.92069714018949 
H7    H     0.03335059013223 0.33319444008574 0.36827953996606 
H8    H     0.71277864011770 0.26118203976910 0.32457934013355 
H9    H     0.47545283001356 0.23139181982623 0.20390140998557 
H10   H     0.89723223914733 0.40893801984338 0.79933240041885 
H11   H     0.39385330026063 0.25474597985885 0.03997388964098 
H12   H     0.51519135984750 0.31733419992090 0.86010826979116 
C1    C     0.13587951001564 0.53311187001543 0.05729956985785 
C2    C     0.13372115100159 0.47134284981416 0.12592340961235 
C3    C     0.97822158893636 0.40279212008583 0.13594491023502 
C4    C     0.29419388995390 0.59625939002015 0.04870447035374 
C5    C     0.28224678903425 0.48090319024804 0.19444313036125 
C6    C     0.86807819960997 0.37816172979416 0.05749015027389 
C7    C     0.93113719952654 0.35664158005396 0.22894550971084 
C8    C     0.45934053031923 0.60132845976260 0.10864245015471 
C9    C     0.44906732951771 0.54479984023452 0.18162094981605 
C10   C     0.67622555007486 0.31789652009853 0.08556200038015 
C11   C     0.24910671999555 0.42855092020589 0.27974440006941 
C12   C     0.94888312078742 0.40712834980042 0.95059019969581 
C13   C     0.06780785078222 0.37128677019215 0.29998184001058 
C14   C     0.75094822093377 0.29419921006588 0.25106764963783 
C15   C     0.61999321051239 0.27729985024934 0.18410862023969 
C16   C     0.82657487941256 0.38527201975775 0.88080096976753 
C17   C     0.54874746089231 0.29798392976238 0.01394084000562 
C18   C     0.61727411089176 0.33226782020355 0.91390021963255 
