data_stdin
_audit_creation_method 'critic2'
_audit_creation_date 2023-8-11
_chemical_formula_sum 'C18 H12'
_cell_formula_units_Z 4
_cell_length_a        17.4417342735
_cell_length_b         5.1088700966
_cell_length_c        13.9198268602
_cell_angle_alpha        89.9993
_cell_angle_beta       103.1997
_cell_angle_gamma        90.0030
_cell_volume          1207.591318
_space_group_crystal_system monoclinic
_space_group_IT_number 14
_space_group_name_H-M_alt 'P2_1/c'
_space_group_name_Hall '-P 2ybc'
loop_
_symmetry_equiv_pos_site_id
_symmetry_equiv_pos_as_xyz
 1 'x,y,z'
 2 '-x,-y,-z'
 3 '-x,-1/2+y,-1/2-z'
 4 'x,-1/2-y,-1/2+z'
loop_
_atom_site_label
_atom_site_type_symbol
_atom_site_fract_x
_atom_site_fract_y
_atom_site_fract_z
H1    H     0.23357343992475 0.91064160072713 0.81543614963549 
H2    H     0.11627103020629 0.64377348963703 0.75669095013971 
H3    H     0.99077366985721 0.74876580016954 0.80481211969222 
H4    H     0.98960954982851 0.10386384073266 0.92714719016653 
H5    H     0.05892307004620 0.41862800933208 0.04514549986199 
H6    H     0.25522645014352 0.20138227979559 0.74086465016393 
H7    H     0.17949830970673 0.67324926973268 0.11572010967871 
H8    H     0.30880341002110 0.80759276905939 0.11702737018230 
H9    H     0.42605287988813 0.81654645917027 0.04476916004659 
H10   H     0.36770992976875 0.24232546929421 0.66719253979863 
H11   H     0.48948732999961 0.70036740003863 0.91491860017069 
H12   H     0.48889533977712 0.48357522925572 0.75489310015874 
C1    C     0.17922849014665 0.96775498927443 0.83507568007552 
C2    C     0.17898503015984 0.18582317087681 0.89814285013775 
C3    C     0.24460356018972 0.36514187995143 0.92893085029998 
C4    C     0.11320111007995 0.81314065064212 0.80312540019735 
C5    C     0.11002400979182 0.21966404943733 0.93680314010956 
C6    C     0.30854314000675 0.39698910992578 0.87884839018311 
C7    C     0.24452063029461 0.52902694050916 0.01142704009571 
C8    C     0.04293335026277 0.86741063962311 0.83270015993586 
C9    C     0.04229293979360 0.06547192987084 0.89989120004851 
C10   C     0.37506195998523 0.55653168048455 0.92363260005441 
C11   C     0.11108056007416 0.40068366084284 0.01501428973284 
C12   C     0.30769806980374 0.29611677962304 0.78347847028548 
C13   C     0.17744226018409 0.54099264930979 0.05379437969801 
C14   C     0.31065235971739 0.69042710035553 0.05224503978752 
C15   C     0.37491760027540 0.69760385041082 0.01194238003216 
C16   C     0.37116177986298 0.32525496930978 0.74015570994442 
C17   C     0.43932282017114 0.58235710927477 0.87791618031299 
C18   C     0.43872439985873 0.46379257052366 0.78866311030527 
