data_stdin
_audit_creation_method 'critic2'
_audit_creation_date 2023-8-11
_chemical_formula_sum 'C18 H12'
_cell_formula_units_Z 2
_cell_length_a        10.3523869947
_cell_length_b         3.8070207447
_cell_length_c        15.5517176907
_cell_angle_alpha        90.0001
_cell_angle_beta        67.7840
_cell_angle_gamma        89.9973
_cell_volume           567.420325
_space_group_crystal_system monoclinic
_space_group_IT_number 7
_space_group_name_H-M_alt 'Pc'
_space_group_name_Hall 'P -2yc'
loop_
_symmetry_equiv_pos_site_id
_symmetry_equiv_pos_as_xyz
 1 'x,y,z'
 2 'x,-y,-1/2+z'
loop_
_atom_site_label
_atom_site_type_symbol
_atom_site_fract_x
_atom_site_fract_y
_atom_site_fract_z
H1    H     0.00240166961538 0.91301151921695 0.99637947992605 
H2    H     0.22627002007998 0.80512822094362 0.87087811032132 
H3    H     0.41810222963113 0.49514873035063 0.90198169009076 
H4    H     0.38687521001408 0.36167543890091 0.06475090996719 
H5    H     0.25248322999231 0.41507880965962 0.23054877032830 
H6    H     0.85389916996779 0.53953516875326 0.03286141026982 
H7    H     0.04036505968984 0.61928417905895 0.35979666001207 
H8    H     0.80858753946601 0.86452267118381 0.41682187020108 
H9    H     0.59377020057636 0.03539118921521 0.39327220977789 
H10   H     0.62941570990136 0.62560484083456 0.01860973978251 
H11   H     0.45780908997393 0.04194262016124 0.29602945983046 
H12   H     0.43005354027614 0.89896166970858 0.14831639995368 
C1    C     0.08270035987649 0.77358465013031 0.01166024031116 
C2    C     0.05748989999557 0.67575871040796 0.10455224998158 
C3    C     0.92510881961878 0.72688652964599 0.18093833985004 
C4    C     0.21037576005322 0.71608153869605 0.94067416029183 
C5    C     0.17405212950698 0.54650414917844 0.12351119012897 
C6    C     0.79321114973499 0.76964517925173 0.17000918020745 
C7    C     0.92472513963984 0.73275059002644 0.27223651986750 
C8    C     0.31940094973437 0.55176449984486 0.95859041033916 
C9    C     0.30154914039769 0.47429227987114 0.04906695984592 
C10   C     0.67430575032215 0.89077030054330 0.24737248991791 
C11   C     0.16280959018242 0.51287693092963 0.21736408997307 
C12   C     0.77076222024609 0.66950983030552 0.08889930966171 
C13   C     0.04522988015392 0.62290190906732 0.28857001975240 
C14   C     0.80356118969571 0.84619167924626 0.34820884033204 
C15   C     0.68453105974543 0.93829858898259 0.33553352965571 
C16   C     0.64290939010376 0.71341019025694 0.08135325027187 
C17   C     0.54578887996053 0.94318825001935 0.23686075983912 
C18   C     0.53013214987360 0.86158022071405 0.15490486001862 
