data_stdin
_audit_creation_method 'critic2'
_audit_creation_date 2023-8-11
_chemical_formula_sum 'C18 H12'
_cell_formula_units_Z 4
_cell_length_a         8.2034405482
_cell_length_b        10.5785853710
_cell_length_c        14.8356443154
_cell_angle_alpha        90.0010
_cell_angle_beta        71.0612
_cell_angle_gamma        90.0002
_cell_volume          1217.753935
_space_group_crystal_system monoclinic
_space_group_IT_number 14
_space_group_name_H-M_alt 'P2_1/c'
_space_group_name_Hall '-P 2ybc'
loop_
_symmetry_equiv_pos_site_id
_symmetry_equiv_pos_as_xyz
 1 'x,y,z'
 2 '-x,-y,-z'
 3 '-x,-1/2+y,-1/2-z'
 4 'x,-1/2-y,-1/2+z'
loop_
_atom_site_label
_atom_site_type_symbol
_atom_site_fract_x
_atom_site_fract_y
_atom_site_fract_z
H1    H     0.70526098010602 0.49654459002971 0.38546717013979 
H2    H     0.63453716956067 0.71476334961780 0.36184015020983 
H3    H     0.60088244028917 0.87621858043433 0.48951004977950 
H4    H     0.61998940024576 0.80791940000428 0.64649911994597 
H5    H     0.63367149040100 0.64192431004630 0.75524573005845 
H6    H     0.94527469057385 0.43187487033748 0.35588710988796 
H7    H     0.65479843043499 0.41457968956099 0.78947419987189 
H8    H     0.68807272031734 0.19879135011774 0.73986910027586 
H9    H     0.76119376923054 0.03480928036837 0.61349676033903 
H10   H     0.05384136009574 0.26906891996191 0.23353592966779 
H11   H     0.88639697044501 0.97922268030760 0.44682859972530 
H12   H     0.02080271024461 0.04069491957164 0.27740144991609 
C1    C     0.69879076978077 0.56508008011644 0.44095586997949 
C2    C     0.71898402986842 0.52397770002878 0.52775866008648 
C3    C     0.75910486943751 0.39480999959240 0.54567938997190 
C4    C     0.65628039008328 0.68865266001740 0.42794202984196 
C5    C     0.67924469046445 0.61376772018441 0.60422375982009 
C6    C     0.83192684952764 0.30176565972303 0.47189432987395 
C7    C     0.72087831955916 0.35595508968409 0.64193882977932 
C8    C     0.63339491982818 0.77896582023868 0.50070999990386 
C9    C     0.64391915041095 0.74109756980581 0.58771075983261 
C10   C     0.82661379024459 0.17063286033589 0.49742999996064 
C11   C     0.66348324026467 0.57243991010103 0.69812182023003 
C12   C     0.92017759989539 0.33323395021983 0.37551566993459 
C13   C     0.67534761990603 0.44713327982098 0.71698024969004 
C14   C     0.72360942996272 0.22508911022750 0.66498309014503 
C15   C     0.76520522944730 0.13482085974767 0.59539567016821 
C16   C     0.98624726048377 0.24148634007288 0.30689464013598 
C17   C     0.89248911926479 0.07824391024712 0.42579618024440 
C18   C     0.96931448043448 0.11261450978923 0.33164939981327 
