data_stdin
_audit_creation_method 'critic2'
_audit_creation_date 2023-8-11
_chemical_formula_sum 'C18 H12'
_cell_formula_units_Z 2
_cell_length_a         9.7947477160
_cell_length_b         8.1545554834
_cell_length_c         8.1156524735
_cell_angle_alpha        84.7374
_cell_angle_beta        68.6049
_cell_angle_gamma       101.1813
_cell_volume           582.645161
_space_group_crystal_system triclinic
_space_group_IT_number 2
_space_group_name_H-M_alt 'P-1'
_space_group_name_Hall '-P 1'
loop_
_symmetry_equiv_pos_site_id
_symmetry_equiv_pos_as_xyz
 1 'x,y,z'
 2 '-x,-y,-z'
loop_
_atom_site_label
_atom_site_type_symbol
_atom_site_fract_x
_atom_site_fract_y
_atom_site_fract_z
H1    H     0.33298034963035 0.62591111953457 0.65420254001802 
H2    H     0.55007364021458 0.86404359973401 0.48538444997759 
H3    H     0.71167369049187 0.00620372978879 0.63442959973809 
H4    H     0.64343108980797 0.90918704066978 0.95979233959938 
H5    H     0.47516547995984 0.73763435956825 0.24371024033387 
H6    H     0.32731927007750 0.38566749979443 0.67478753960846 
H7    H     0.23040315989571 0.53124669037461 0.43012478024490 
H8    H     0.00093936021603 0.34497978960796 0.46013426010502 
H9    H     0.83628412981699 0.18373392010106 0.32827241036871 
H10   H     0.17229421994533 0.19845814971530 0.55903759014525 
H11   H     0.80002009026619 0.08629236985283 0.07392767988300 
H12   H     0.90324508041030 0.05428581998341 0.75235825988314 
C1    C     0.40405763995452 0.68053039052769 0.72090122975153 
C2    C     0.36455818040745 0.61754866026129 0.90548089989752 
C3    C     0.23424469999435 0.47963538045024 0.01258505033825 
C4    C     0.52557898969177 0.81730262049129 0.62577812975269 
C5    C     0.45187331024543 0.70852749930742 0.99186704024473 
C6    C     0.15046594978611 0.36207260051479 0.93917733956583 
C7    C     0.18200237067459 0.46203507061907 0.20264133978655 
C8    C     0.61605049041115 0.89855628965174 0.70973445934016 
C9    C     0.57863183976219 0.84448678018625 0.89029945974362 
C10   C     0.00202518953702 0.26273335966957 0.05453745041029 
C11   C     0.40521838013280 0.66917016921536 0.18192791058034 
C12   C     0.20944194060534 0.32953536038735 0.76107754966695 
C13   C     0.27145679950488 0.55516903986475 0.28394307059863 
C14   C     0.03839173020111 0.35228663936660 0.31516048047661 
C15   C     0.94823986978425 0.26263481027398 0.24299664057877 
C16   C     0.12217430029944 0.22104175002721 0.69594666017016 
C17   C     0.91342257048423 0.15717089056748 0.98308980989352 
C18   C     0.97088817040198 0.13877627009761 0.80532392934549 
