data_stdin
_audit_creation_method 'critic2'
_audit_creation_date 2023-8-11
_chemical_formula_sum 'C18 H12'
_cell_formula_units_Z 8
_cell_length_a        14.5167060500
_cell_length_b         8.1890855710
_cell_length_c        19.8883399640
_cell_angle_alpha        89.9998
_cell_angle_beta        90.0000
_cell_angle_gamma        90.0000
_cell_volume          2364.296978
_space_group_crystal_system orthorhombic
_space_group_IT_number 60
_space_group_name_H-M_alt 'Pbcn'
_space_group_name_Hall '-P 2n 2ab'
loop_
_symmetry_equiv_pos_site_id
_symmetry_equiv_pos_as_xyz
 1 'x,y,z'
 2 '-x,-y,-z'
 3 '-1/2-x,-1/2-y,-1/2+z'
 4 '-1/2+x,-1/2+y,-1/2-z'
 5 '-1/2+x,-1/2-y,-z'
 6 '-1/2-x,-1/2+y,z'
 7 '-x,y,-1/2-z'
 8 'x,-y,-1/2+z'
loop_
_atom_site_label
_atom_site_type_symbol
_atom_site_fract_x
_atom_site_fract_y
_atom_site_fract_z
H1    H     0.41700507019016 0.88109560956248 0.22106529000689 
H2    H     0.39371569975105 0.95330436022256 0.10316681005268 
H3    H     0.33242995034101 0.74464630989669 0.02161493019946 
H4    H     0.31239813997930 0.45944037965818 0.05923217024615 
H5    H     0.33189744003854 0.24725299974490 0.14445622984484 
H6    H     0.30601919004151 0.89215153000796 0.28447390016120 
H7    H     0.38408060989475 0.16696841964497 0.25859178998639 
H8    H     0.43363035966539 0.23591876003167 0.37030950019648 
H9    H     0.44878178977756 0.43672135966872 0.46276688976485 
H10   H     0.29562612993771 0.07422095973377 0.38139816006484 
H11   H     0.42269227030341 0.70985920024816 0.50650175000771 
H12   H     0.36024772001395 0.98936945983872 0.49273035981496 
C1    C     0.38956469974161 0.78979582008948 0.18690558986877 
C2    C     0.37189662974118 0.62998741980097 0.21113519992184 
C3    C     0.38162480010237 0.58311128974369 0.28098692993530 
C4    C     0.37732324972729 0.83016008967871 0.12001524988166 
C5    C     0.34969924985975 0.50713466988836 0.16247786003174 
C6    C     0.37663185007294 0.69636795054042 0.33677486004423 
C7    C     0.39416628997706 0.41506599008299 0.29557931994751 
C8    C     0.34508416975438 0.71270684993692 0.07397835013942 
C9    C     0.33289545020548 0.55333928977131 0.09501136013618 
C10   C     0.40346458969356 0.64210852049697 0.40247002006051 
C11   C     0.35038347007563 0.33926087966439 0.18165724994969 
C12   C     0.33699643024184 0.85434065006961 0.33164244008940 
C13   C     0.37786349010406 0.29522160019325 0.24477786020443 
C14   C     0.42004228007214 0.36498033035901 0.36161873000658 
C15   C     0.42824889973614 0.47558840997927 0.41262647007757 
C16   C     0.33003226983687 0.95681318962029 0.38670610998237 
C17   C     0.39962083997381 0.75202310942365 0.45733806024118 
C18   C     0.36434729012397 0.90753757992831 0.44974814024158 
