data_stdin
_audit_creation_method 'critic2'
_audit_creation_date 2023-8-11
_chemical_formula_sum 'C18 H12'
_cell_formula_units_Z 4
_cell_length_a         9.0913624417
_cell_length_b         9.6768323800
_cell_length_c        13.9025037637
_cell_angle_alpha        90.0000
_cell_angle_beta        91.2630
_cell_angle_gamma        90.0000
_cell_volume          1222.783851
_space_group_crystal_system monoclinic
_space_group_IT_number 14
_space_group_name_H-M_alt 'P2_1/c'
_space_group_name_Hall '-P 2ybc'
loop_
_symmetry_equiv_pos_site_id
_symmetry_equiv_pos_as_xyz
 1 'x,y,z'
 2 '-x,-y,-z'
 3 '-x,-1/2+y,-1/2-z'
 4 'x,-1/2-y,-1/2+z'
loop_
_atom_site_label
_atom_site_type_symbol
_atom_site_fract_x
_atom_site_fract_y
_atom_site_fract_z
H1    H     0.84342474999579 0.70630052948892 0.65460278999661 
H2    H     0.78798808997136 0.46284822970717 0.63332876031140 
H3    H     0.61588482042756 0.34143220999090 0.74260891973794 
H4    H     0.51302450037205 0.46998469019745 0.88064219008818 
H5    H     0.49578002987778 0.67528030948869 0.97787401993224 
H6    H     0.73569498971872 0.85617063995013 0.59302374017364 
H7    H     0.58674997995775 0.90973744994545 0.01876008016904 
H8    H     0.72322472986908 0.11364155999023 0.98151119974764 
H9    H     0.86537577038204 0.25621911040708 0.86810507012588 
H10   H     0.83985029959323 0.01634318008018 0.47901139983613 
H11   H     0.95566437025060 0.29595426003856 0.70913904983744 
H12   H     0.96427171963611 0.23431660025722 0.53632914994838 
C1    C     0.76468603053244 0.65893392981632 0.70190028034558 
C2    C     0.70210588989739 0.73760693017450 0.77669431987435 
C3    C     0.73176851024374 0.88326409020343 0.79261899023863 
C4    C     0.73491855035736 0.51971583029905 0.69045065029354 
C5    C     0.61426443985746 0.66378159980101 0.84420643027896 
C6    C     0.79181231978780 0.97574145029182 0.72128211035054 
C7    C     0.69906940033975 0.93933955047300 0.88421859013675 
C8    C     0.64020605027563 0.45056009015622 0.75298610008740 
C9    C     0.58268751951283 0.52212894957531 0.82931913027763 
C10   C     0.84552849991778 0.10866529001631 0.75119719985595 
C11   C     0.56643858024706 0.73148369047480 0.92906674010283 
C12   C     0.78944792004824 0.94846045045867 0.62082659972113 
C13   C     0.61432662012845 0.86181083050832 0.95064763971121 
C14   C     0.74816783016862 0.07478425037757 0.91014997025910 
C15   C     0.82552382008652 0.15394200037062 0.84757550002514 
C16   C     0.84683112962634 0.04064513000074 0.55545003000748 
C17   C     0.91049105969222 0.19804393037425 0.68360831972484 
C18   C     0.91345494044678 0.16444553977213 0.58725708001070 
