data_stdin
_audit_creation_method 'critic2'
_audit_creation_date 2023-8-11
_chemical_formula_sum 'C18 H12'
_cell_formula_units_Z 4
_cell_length_a         3.8589494775
_cell_length_b        14.9238292033
_cell_length_c        20.1769749320
_cell_angle_alpha        90.0009
_cell_angle_beta        86.9302
_cell_angle_gamma        89.9962
_cell_volume          1160.330679
_space_group_crystal_system monoclinic
_space_group_IT_number 14
_space_group_name_H-M_alt 'P2_1/c'
_space_group_name_Hall '-P 2ybc'
loop_
_symmetry_equiv_pos_site_id
_symmetry_equiv_pos_as_xyz
 1 'x,y,z'
 2 '-x,-y,-z'
 3 '-x,-1/2+y,-1/2-z'
 4 'x,-1/2-y,-1/2+z'
loop_
_atom_site_label
_atom_site_type_symbol
_atom_site_fract_x
_atom_site_fract_y
_atom_site_fract_z
H1    H     0.48859953998698 0.92236178967003 0.45998821986423 
H2    H     0.32409144969886 0.07506916976423 0.43150578988815 
H3    H     0.04852133993228 0.10685485018456 0.32522773997405 
H4    H     0.96612778881444 0.98282983010493 0.24537196016015 
H5    H     0.06671346880184 0.82998313009939 0.21044207985254 
H6    H     0.17881038870087 0.84028002004479 0.51005161019335 
H7    H     0.32114514090320 0.67993480970394 0.23107465013443 
H8    H     0.57856951993034 0.57490355978642 0.29998852010569 
H9    H     0.77291995115465 0.52634617029002 0.40958830978892 
H10   H     0.30021562069652 0.78103026994211 0.61872889009422 
H11   H     0.78001377929207 0.54864622013216 0.52772076012625 
H12   H     0.61728635990483 0.63607079985183 0.62946842987795 
C1    C     0.35421950968672 0.93336306004178 0.41486303018339 
C2    C     0.29611987887277 0.86004947987780 0.37215831991387 
C3    C     0.38246707045907 0.76796756990022 0.38734889006382 
C4    C     0.26781984018704 0.02012812006434 0.39828213010410 
C5    C     0.16991643061584 0.88080179985433 0.30827256004061 
C6    C     0.44082469112075 0.73440504003506 0.45328883991824 
C7    C     0.41116568081439 0.70623592988956 0.33387875006409 
C8    C     0.11737120072369 0.03845507968552 0.33780847980149 
C9    C     0.07238763088135 0.96962867975196 0.29340551977491 
C10   C     0.59237681878002 0.64728183028554 0.46029903012758 
C11   C     0.16553094088893 0.81314724976985 0.25847326001602 
C12   C     0.33156653110564 0.77947604013441 0.51265510990770 
C13   C     0.30025881090219 0.73046972980494 0.27004004980518 
C14   C     0.55068942114755 0.61890516986777 0.34302058011149 
C15   C     0.65497228058423 0.59189251968341 0.40336810992657 
C16   C     0.39344211073257 0.74479530000603 0.57449248983230 
C17   C     0.65979047108937 0.61435024022686 0.52406729020325 
C18   C     0.56690536006987 0.66257387028382 0.58060558981103 
