data_stdin
_audit_creation_method 'critic2'
_audit_creation_date 2023-8-11
_chemical_formula_sum 'C18 H12'
_cell_formula_units_Z 4
_cell_length_a        11.6947347753
_cell_length_b         7.1763414600
_cell_length_c        15.7595559241
_cell_angle_alpha        90.0001
_cell_angle_beta        64.6986
_cell_angle_gamma        90.0000
_cell_volume          1195.750601
_space_group_crystal_system monoclinic
_space_group_IT_number 14
_space_group_name_H-M_alt 'P2_1/c'
_space_group_name_Hall '-P 2ybc'
loop_
_symmetry_equiv_pos_site_id
_symmetry_equiv_pos_as_xyz
 1 'x,y,z'
 2 '-x,-y,-z'
 3 '-x,-1/2+y,-1/2-z'
 4 'x,-1/2-y,-1/2+z'
loop_
_atom_site_label
_atom_site_type_symbol
_atom_site_fract_x
_atom_site_fract_y
_atom_site_fract_z
H1    H     0.45692002034230 0.70341642973570 0.11308159999145 
H2    H     0.67228424978492 0.69494800950948 0.99122053011629 
H3    H     0.85358906980162 0.62906576961811 0.03178767983636 
H4    H     0.81220822030214 0.59817167945500 0.19897354993366 
H5    H     0.67095375948266 0.60397803956470 0.36308930019069 
H6    H     0.34733148045993 0.49831747952969 0.14807544981419 
H7    H     0.45536468041239 0.65211904017368 0.48993899981628 
H8    H     0.23546387041351 0.69353705949838 0.54330040001491 
H9    H     0.04182336043434 0.69829837989083 0.51666895977512 
H10   H     0.15139045985396 0.47303168953374 0.12971091987828 
H11   H     0.93888319017755 0.64662594966014 0.41542713034776 
H12   H     0.94438511027971 0.55297595977402 0.26201080018799 
C1    C     0.53238758985449 0.66804359952603 0.13268293011746 
C2    C     0.50382139989339 0.63620501967479 0.22841991021644 
C3    C     0.37644832977646 0.63246257930784 0.30331272991077 
C4    C     0.65515990056489 0.66705730930709 0.06360367967026 
C5    C     0.60958510047238 0.61934591940941 0.25143728979685 
C6    C     0.26210386004613 0.60973676935792 0.28962538031962 
C7    C     0.36286644000409 0.65105702000221 0.39690574974421 
C8    C     0.75719510015014 0.63441339024420 0.08642338004914 
C9    C     0.73409159956086 0.61425692972039 0.17935071028485 
C10   C     0.14142333049547 0.64039261986554 0.36740086972839 
C11   C     0.58932573983661 0.61819971951167 0.34719240976543 
C12   C     0.26017169993309 0.54460150931442 0.20514319986195 
C13   C     0.47073831009913 0.64355055965555 0.41687220020979 
C14   C     0.24115676950810 0.67439156043772 0.47296595016979 
C15   C     0.13427489039850 0.67697326954666 0.45838340986062 
C16   C     0.14866225942860 0.52549111989344 0.19537132030417 
C17   C     0.02885583021203 0.62316597976597 0.35497707968719 
C18   C     0.03168359987020 0.56889015965864 0.27014248001203 
