data_stdin
_audit_creation_method 'critic2'
_audit_creation_date 2023-8-11
_chemical_formula_sum 'C18 H12'
_cell_formula_units_Z 4
_cell_length_a        14.2710657700
_cell_length_b        10.3187909200
_cell_length_c         7.9395817800
_cell_angle_alpha        90.0000
_cell_angle_beta        90.0000
_cell_angle_gamma        90.0000
_cell_volume          1169.183955
_space_group_crystal_system orthorhombic
_space_group_IT_number 29
_space_group_name_H-M_alt 'Pca2_1'
_space_group_name_Hall 'P 2c -2ac'
loop_
_symmetry_equiv_pos_site_id
_symmetry_equiv_pos_as_xyz
 1 'x,y,z'
 2 '-x,-y,-1/2+z'
 3 '-1/2-x,y,-1/2+z'
 4 '-1/2+x,-y,z'
loop_
_atom_site_label
_atom_site_type_symbol
_atom_site_fract_x
_atom_site_fract_y
_atom_site_fract_z
H1    H     0.32254622012690 0.85692566032794 0.01051285041579 
H2    H     0.43631824977547 0.70197418029693 0.90246834995208 
H3    H     0.38307833030554 0.49601242972604 0.76629503017834 
H4    H     0.21355991999233 0.44119021991367 0.76502502999226 
H5    H     0.05438423973207 0.48570827969764 0.85693534992513 
H6    H     0.27037483997871 0.99008318012334 0.85763479965577 
H7    H     0.94193257975780 0.62659588994809 0.00947477997346 
H8    H     0.90255774013490 0.82738469018297 0.14604377952987 
H9    H     0.93831339988141 0.05545118015611 0.21396427986358 
H10   H     0.28902449997722 0.22244783018655 0.88685135975776 
H11   H     0.03401601977414 0.24458486039508 0.17539669001793 
H12   H     0.17397830013430 0.35353256035937 0.05227830010740 
C1    C     0.29724561972178 0.76929229005140 0.95018027052186 
C2    C     0.19954533017540 0.74573798000774 0.94000385991101 
C3    C     0.12899054033565 0.83727765016111 0.99541771987188 
C4    C     0.36191034002243 0.68027199046441 0.89166415021479 
C5    C     0.17041710972875 0.62055375983163 0.88148770023196 
C6    C     0.14458470989771 0.97563472995909 0.01182421938501 
C7    C     0.03800443965386 0.78869989962483 0.03144274953995 
C8    C     0.33196623996711 0.56328667981358 0.81814774057347 
C9    C     0.23764955973575 0.53362722959240 0.81536291962792 
C10   C     0.07460868015230 0.05326655000059 0.09365824959002 
C11   C     0.07516439982360 0.58152647958194 0.90109199959910 
C12   C     0.22068244004248 0.04231398987389 0.93574204941620 
C13   C     0.01303544022557 0.65978160975568 0.98369014044879 
C14   C     0.97020666974445 0.86890783010749 0.11249249023553 
C15   C     0.98935164013481 0.99542464977140 0.14871152974705 
C16   C     0.23063262967498 0.17525420037699 0.95013184970693 
C17   C     0.08760032989891 0.18869958996750 0.10994049958750 
C18   C     0.16495459971295 0.24915178993570 0.04109185053947 
