data_stdin
_audit_creation_method 'critic2'
_audit_creation_date 2023-8-11
_chemical_formula_sum 'C18 H12'
_cell_formula_units_Z 8
_cell_length_a        13.8791868800
_cell_length_b        11.1636025604
_cell_length_c        15.3804465400
_cell_angle_alpha        90.0006
_cell_angle_beta        90.0000
_cell_angle_gamma        90.0000
_cell_volume          2383.072936
_space_group_crystal_system orthorhombic
_space_group_IT_number 61
_space_group_name_H-M_alt 'Pbca'
_space_group_name_Hall '-P 2ac 2ab'
loop_
_symmetry_equiv_pos_site_id
_symmetry_equiv_pos_as_xyz
 1 'x,y,z'
 2 '-x,-y,-z'
 3 '-1/2+x,-1/2-y,-z'
 4 '-1/2-x,-1/2+y,z'
 5 '-x,-1/2+y,-1/2-z'
 6 'x,-1/2-y,-1/2+z'
 7 '-1/2-x,-y,-1/2+z'
 8 '-1/2+x,y,-1/2-z'
loop_
_atom_site_label
_atom_site_type_symbol
_atom_site_fract_x
_atom_site_fract_y
_atom_site_fract_z
H1    H     0.32998943987640 0.11088888042344 0.21089536016909 
H2    H     0.30458161982632 0.93023214002801 0.29839078015922 
H3    H     0.31814657032987 0.72758660035759 0.23112031030957 
H4    H     0.34687557998504 0.71061038956855 0.07226326006922 
H5    H     0.36873725989519 0.80040708957484 0.93094392022089 
H6    H     0.45889911022565 0.18880383028516 0.19358245002094 
H7    H     0.36467761999004 0.98151772998543 0.83749141967572 
H8    H     0.35184978975324 0.19439622000766 0.82032905021315 
H9    H     0.35594583000452 0.40035113998538 0.88113592006449 
H10   H     0.48637564025634 0.39288489969571 0.24503089971920 
H11   H     0.38570116031899 0.53361983961168 0.00127538995380 
H12   H     0.44234662014369 0.56872339009009 0.15267021032111 
C1    C     0.33928859997045 0.02375169995863 0.18072846005880 
C2    C     0.36224313986873 0.01722349966553 0.09093126980771 
C3    C     0.37689295013639 0.12155833022150 0.03648137007443 
C4    C     0.32323711005543 0.92190589035896 0.22987588973011 
C5    C     0.36132145971814 0.90074992978652 0.05160108003467 
C6    C     0.39805930016299 0.24038802979046 0.06909478986469 
C7    C     0.36828421009731 0.10673903029539 0.94512796011119 
C8    C     0.32976764021387 0.80750145042275 0.19185126973372 
C9    C     0.34739067997547 0.79789638968067 0.10380715030559 
C10   C     0.38549397968277 0.34135675039463 0.01263690025961 
C11   C     0.36750968013578 0.88967294029448 0.95947086019525 
C12   C     0.43734452004888 0.26336004975699 0.15255930031034 
C13   C     0.36610895032398 0.98942542993982 0.90813235968498 
C14   C     0.36164425014877 0.20907216012061 0.88974221006093 
C15   C     0.36489201026730 0.32244608042972 0.92294778975383 
C16   C     0.45365094026747 0.37892423968809 0.18160493973470 
C17   C     0.39846069969278 0.45872482995069 0.04520098979283 
C18   C     0.43060290033152 0.47797109021669 0.12896057985606 
