data_stdin
_audit_creation_method 'critic2'
_audit_creation_date 2023-8-11
_chemical_formula_sum 'C18 H12'
_cell_formula_units_Z 8
_cell_length_a         7.9420934022
_cell_length_b        15.4553050002
_cell_length_c        19.2669704500
_cell_angle_alpha        90.0003
_cell_angle_beta        90.0012
_cell_angle_gamma        89.9993
_cell_volume          2364.971990
_space_group_crystal_system orthorhombic
_space_group_IT_number 61
_space_group_name_H-M_alt 'Pbca'
_space_group_name_Hall '-P 2ac 2ab'
loop_
_symmetry_equiv_pos_site_id
_symmetry_equiv_pos_as_xyz
 1 'x,y,z'
 2 '-x,-y,-z'
 3 '-1/2-x,-y,-1/2+z'
 4 '-1/2+x,y,-1/2-z'
 5 '-1/2+x,-1/2-y,-z'
 6 '-1/2-x,-1/2+y,z'
 7 '-x,-1/2+y,-1/2-z'
 8 'x,-1/2-y,-1/2+z'
loop_
_atom_site_label
_atom_site_type_symbol
_atom_site_fract_x
_atom_site_fract_y
_atom_site_fract_z
H1    H     0.49620047769787 0.04249740219966 0.89799335404420 
H2    H     0.36564336286414 0.94493844769747 0.81473098148411 
H3    H     0.39555241177162 0.97015810128419 0.68726099911707 
H4    H     0.54094767080300 0.10302211049600 0.64600577196783 
H5    H     0.67647545110478 0.23972875789956 0.66900875163072 
H6    H     0.72855432168744 0.01959272838128 0.92858959720486 
H7    H     0.79086975048949 0.34673926173776 0.75291221445611 
H8    H     0.86125404489109 0.38992880802602 0.86709391978455 
H9    H     0.90025405962767 0.35846465456641 0.99236486502943 
H10   H     0.81372976295205 0.98605867317310 0.04689620286842 
H11   H     0.91124761828350 0.25511967652095 0.08591141362339 
H12   H     0.89583927843611 0.10436465524001 0.12889663327337 
C1    C     0.51601231803338 0.05413794150477 0.84300127213013 
C2    C     0.61253893517518 0.12633687139410 0.82117386014243 
C3    C     0.70461965255041 0.18244209489846 0.86801278403977 
C4    C     0.43973854904446 0.99921419258490 0.79576843301927 
C5    C     0.61146161206503 0.14595418928025 0.74840057496080 
C6    C     0.75349212927645 0.15910907692563 0.93817068904712 
C7    C     0.75628621584101 0.26450801355631 0.84260205722630 
C8    C     0.45507107721562 0.01399430961626 0.72403889854953 
C9    C     0.53679582721539 0.08749619087657 0.70112026634561 
C10   C     0.81818122779075 0.22496836493702 0.98350399389156 
C11   C     0.68053571161675 0.22555676124998 0.72435479984745 
C12   C     0.75715565530181 0.07275215552016 0.96341270243662 
C13   C     0.74296328078765 0.28440316581310 0.77046169205841 
C14   C     0.82600940457214 0.32735140841508 0.88859097638275 
C15   C     0.84867785583617 0.30982329892234 0.95737517762078 
C16   C     0.80743029222400 0.05340903015359 0.03044384641388 
C17   C     0.86346619767560 0.20391776081375 0.05245467863393 
C18   C     0.85641290347806 0.11975150574173 0.07623306910898 
