data_stdin
_audit_creation_method 'critic2'
_audit_creation_date 2023-8-11
_chemical_formula_sum 'C18 H12'
_cell_formula_units_Z 8
_cell_length_a        19.7106421601
_cell_length_b        10.4497355201
_cell_length_c        11.6315769802
_cell_angle_alpha        90.0001
_cell_angle_beta        89.9997
_cell_angle_gamma        90.0001
_cell_volume          2395.767513
_space_group_crystal_system orthorhombic
_space_group_IT_number 61
_space_group_name_H-M_alt 'Pbca'
_space_group_name_Hall '-P 2ac 2ab'
loop_
_symmetry_equiv_pos_site_id
_symmetry_equiv_pos_as_xyz
 1 'x,y,z'
 2 '-x,-y,-z'
 3 '-1/2+x,-1/2-y,-z'
 4 '-1/2-x,-1/2+y,z'
 5 '-x,-1/2+y,-1/2-z'
 6 'x,-1/2-y,-1/2+z'
 7 '-1/2-x,-y,-1/2+z'
 8 '-1/2+x,y,-1/2-z'
loop_
_atom_site_label
_atom_site_type_symbol
_atom_site_fract_x
_atom_site_fract_y
_atom_site_fract_z
H1    H     0.33785955993659 0.71775955989983 0.65656550970609 
H2    H     0.33997702984135 0.93923858008598 0.59824954962040 
H3    H     0.38496973989115 0.00357393045477 0.40518516970567 
H4    H     0.43225351998951 0.83607330973599 0.27669575964002 
H5    H     0.46560414990178 0.61987328996384 0.23897329965656 
H6    H     0.26736650976031 0.59965168033568 0.64993742998302 
H7    H     0.47983063998359 0.39629916038893 0.30620705035313 
H8    H     0.46528676985633 0.23327059958149 0.44259868013426 
H9    H     0.41539791984948 0.14820256995926 0.62254389964254 
H10   H     0.21299918008192 0.50147984016883 0.81611554025376 
H11   H     0.34110901003030 0.17170868045536 0.78306922991839 
H12   H     0.25067536008332 0.28889192983406 0.88910133001378 
C1    C     0.35620847999332 0.73957378972834 0.57095984033259 
C2    C     0.37980436021628 0.64013856034497 0.49786107003020 
C3    C     0.37946248011484 0.50487859021334 0.52802748011729 
C4    C     0.35863366984701 0.86709641019747 0.53874361037075 
C5    C     0.41006389008104 0.67942706973438 0.39106783020827 
C6    C     0.34185007994467 0.44891443001024 0.62320381005045 
C7    C     0.42034240018339 0.42140004016608 0.46064584959631 
C8    C     0.38463622018624 0.90344822956720 0.43101693970070 
C9    C     0.41033727981712 0.81010514976478 0.35935165999041 
C10   C     0.35805118000466 0.32085804037747 0.65904832963567 
C11   C     0.44349373002076 0.58810102960742 0.31991752015824 
C12   C     0.28688962986516 0.50892919025543 0.68088832997358 
C13   C     0.45087173020600 0.46502179016967 0.35655568964403 
C14   C     0.43193401022316 0.29230341015366 0.49521020021008 
C15   C     0.40432046024088 0.24524201953680 0.59392461040107 
C16   C     0.25484380016957 0.45242218970117 0.77393938035946 
C17   C     0.32564282011469 0.26702789006249 0.75620694999906 
C18   C     0.27534052995809 0.33177670025283 0.81469689034337 
