data_stdin
_audit_creation_method 'critic2'
_audit_creation_date 2023-8-11
_chemical_formula_sum 'C18 H12'
_cell_formula_units_Z 8
_cell_length_a        20.3825336000
_cell_length_b         7.1362006543
_cell_length_c        16.4828425512
_cell_angle_alpha        90.0029
_cell_angle_beta        84.6857
_cell_angle_gamma        90.0012
_cell_volume          2387.187705
_space_group_crystal_system monoclinic
_space_group_IT_number 15
_space_group_name_H-M_alt 'C2/c'
_space_group_name_Hall '-C 2yc'
loop_
_symmetry_equiv_pos_site_id
_symmetry_equiv_pos_as_xyz
 1 'x,y,z'
 2 '-1/2-x,-1/2-y,-z'
 3 '-1/2-x,-1/2+y,-1/2-z'
 4 'x,-y,-1/2+z'
 5 '-1/2+x,-1/2+y,z'
 6 '-x,-y,-z'
 7 '-x,y,-1/2-z'
 8 '-1/2+x,-1/2-y,-1/2+z'
loop_
_atom_site_label
_atom_site_type_symbol
_atom_site_fract_x
_atom_site_fract_y
_atom_site_fract_z
H1    H     0.30099535651351 0.94910806714644 0.38371025974181 
H2    H     0.42008130754619 0.91450498012512 0.37047417393320 
H3    H     0.49318241309797 0.19104671495531 0.33451776992281 
H4    H     0.44160969988318 0.49656974948783 0.30558457603388 
H5    H     0.34712300185790 0.69039990523158 0.29441418907067 
H6    H     0.24546162566687 0.97805108724220 0.48062946437603 
H7    H     0.22607380376640 0.72929377075112 0.30095998816388 
H8    H     0.11882272390056 0.60667584561446 0.31672135199541 
H9    H     0.03978561397458 0.34714479209094 0.35137607971189 
H10   H     0.16535364013335 0.73342077219518 0.51898619962895 
H11   H     0.01626203599024 0.04000048536473 0.40832003349033 
H12   H     0.05048772918427 0.75409706462148 0.47850187233312 
C1    C     0.33100826573202 0.07345143737845 0.37302130525404 
C2    C     0.29998714224781 0.24940920300781 0.36450507578506 
C3    C     0.22910574099544 0.27831957186385 0.37519458248544 
C4    C     0.39875986060861 0.05293487425468 0.36332839712736 
C5    C     0.34210299048128 0.40209980353905 0.33661465376050 
C6    C     0.18164890583041 0.14079543683072 0.40915080020280 
C7    C     0.20416346235518 0.44974890528339 0.34660356191746 
C8    C     0.43984806466416 0.20695002235987 0.34189314798503 
C9    C     0.41126823630567 0.37729902800293 0.32678751904967 
C10   C     0.11348035027907 0.16331329359469 0.39564114901299 
C11   C     0.31430191937195 0.57693108826149 0.31609771179342 
C12   C     0.19726461294986 0.98648837493588 0.45805129276461 
C13   C     0.24762298352624 0.59839754944544 0.31958562223833 
C14   C     0.13524642442422 0.47424362145015 0.34065923757326 
C15   C     0.09187674645011 0.33212274082639 0.36028797162446 
C16   C     0.15121918945894 0.85043525278785 0.48219742396999 
C17   C     0.06751233477896 0.02125766749521 0.42027659863763 
C18   C     0.08620659386055 0.86362107109003 0.46086749680965 
