data_stdin
_audit_creation_method 'critic2'
_audit_creation_date 2023-8-11
_chemical_formula_sum 'C18 H12'
_cell_formula_units_Z 18
_cell_length_a        29.1394415127
_cell_length_b        29.1361104508
_cell_length_c         7.2104934670
_cell_angle_alpha        90.0262
_cell_angle_beta        89.9830
_cell_angle_gamma       120.0167
_cell_volume          5300.723595
_space_group_crystal_system monoclinic
_space_group_IT_number 9
_space_group_name_H-M_alt 'Cc'
_space_group_name_Hall 'C -2yc'
loop_
_symmetry_equiv_pos_site_id
_symmetry_equiv_pos_as_xyz
 1 'x,y,z'
 2 '-2/3-y,-1/3-x,-5/6+z'
 3 '-2/3+x,-1/3+y,-1/3+z'
 4 '-1/3-y,-2/3-x,-1/6+z'
 5 '-1/3+x,-2/3+y,-2/3+z'
 6 '-y,-x,-1/2+z'
loop_
_atom_site_label
_atom_site_type_symbol
_atom_site_fract_x
_atom_site_fract_y
_atom_site_fract_z
H1    H     0.13570115437754 0.96550912760659 0.65375688577418 
H2    H     0.03451533259607 0.17016993545430 0.65375822723931 
H3    H     0.82979872075537 0.86433788413805 0.65376608696739 
H4    H     0.23007488240178 0.02918335649876 0.66714652847909 
H5    H     0.97084593363184 0.20084600118606 0.66711287471193 
H6    H     0.79908957974215 0.76996503298981 0.66714997503941 
H7    H     0.29665396840996 0.99995901589418 0.61993680140412 
H8    H     0.00005499029282 0.29665585489066 0.61984123938187 
H9    H     0.70327676614869 0.70333257697953 0.61986463227931 
H10   H     0.26557605913831 0.90462289560940 0.56988388625672 
H11   H     0.09538080599001 0.36095419413797 0.56980265759278 
H12   H     0.63901602486089 0.73436328589461 0.56979116059099 
H13   H     0.19557854461091 0.81342135696518 0.55934400528472 
H14   H     0.18656818402512 0.38219869942137 0.55929955650670 
H15   H     0.61781076673333 0.80433079269787 0.55924847886722 
H16   H     0.09051793320528 0.94562503077191 0.43002895542549 
H17   H     0.05438104678593 0.14482983965544 0.42998241051726 
H18   H     0.85514863852894 0.90950522822313 0.43008328372736 
H19   H     0.10055059716906 0.74621554033812 0.59969431093103 
H20   H     0.25377333423374 0.35441568565181 0.59966224446822 
H21   H     0.64563111544012 0.89936002428228 0.59962411935029 
H22   H     0.01088275025181 0.72305557017723 0.65478392632118 
H23   H     0.27694055321641 0.28792090502755 0.65465491377292 
H24   H     0.71214273584571 0.98906183302576 0.65463850116309 
H25   H     0.94053029642762 0.74653606975292 0.68238782893456 
H26   H     0.25346544260705 0.19407414945222 0.68229001713761 
H27   H     0.80599319287994 0.05946804561029 0.68221982012481 
H28   H     0.01700063644180 0.96283674531090 0.40511679086050 
H29   H     0.03715184396160 0.05406811421320 0.40513731223551 
H30   H     0.94590359720542 0.98305886924692 0.40519353060519 
H31   H     0.91093738191724 0.81009579237191 0.64005467905086 
H32   H     0.18989423277578 0.10086400270204 0.64004792351236 
H33   H     0.89917185948849 0.08910896149938 0.63990446167133 
H34   H     0.92699929997184 0.89711964315893 0.52524774989010 
H35   H     0.10286172890852 0.02983078502602 0.52532063101089 
H36   H     0.97016986830124 0.07307637815998 0.52519909985298 
C1    C     0.16334802042841 0.95178237646409 0.62469418502213 
C2    C     0.04823510976410 0.21154513328381 0.62467594683159 
C3    C     0.78842234011872 0.83666781234628 0.62468146949567 
C4    C     0.14393992434121 0.89710820980504 0.59070457521562 
C5    C     0.10289982738815 0.24683089030549 0.59068190013368 
C6    C     0.75315802858569 0.85604934641144 0.59067487330864 
C7    C     0.08808436784621 0.85752061294469 0.58572516781987 
C8    C     0.14248299080236 0.23057835972515 0.58569874310050 
C9    C     0.76943124589531 0.91190477723664 0.58569042451977 
C10   C     0.21698068408056 0.98785437578160 0.63582851928744 
C11   C     0.01216691509897 0.22909357610010 0.63577968979938 
C12   C     0.77085598606558 0.78303581538526 0.63580144964867 
C13   C     0.18244913369303 0.88031633495718 0.57782460183395 
C14   C     0.11968568488838 0.30214113785140 0.57778767579146 
C15   C     0.69784769439601 0.81751048674317 0.57776746217785 
C16   C     0.04553348052369 0.86930466779316 0.56528892156068 
C17   C     0.13069812457279 0.17622676851578 0.56525939457725 
C18   C     0.82378144278077 0.95448041035277 0.56525270063919 
C19   C     0.07389263269518 0.80349453663722 0.60390784097939 
C20   C     0.19650462864459 0.27044474312443 0.60386356872939 
C21   C     0.72958549238748 0.92606981559067 0.60384757904303 
C22   C     0.25442201260686 0.97133284878666 0.61123728239364 
C23   C     0.02868071857012 0.28306220538420 0.61117392755327 
C24   C     0.71688692416068 0.74556451217505 0.61117768086629 
C25   C     0.23712618726470 0.91830070854780 0.58284905179367 
C26   C     0.08170484240885 0.31881946803999 0.58278898900599 
C27   C     0.68115027013156 0.76283379158864 0.58277688921625 
C28   C     0.99233475464437 0.82908953174358 0.60932062291355 
C29   C     0.17091041655193 0.16326679061774 0.60928491781392 
C30   C     0.83676009696493 0.00768275775360 0.60923331262678 
C31   C     0.16560643878025 0.82522882959384 0.57168131948903 
C32   C     0.17476619002961 0.34041326590566 0.57164986099606 
C33   C     0.65959650444783 0.83432526514871 0.57161443131581 
C34   C     0.05233724017815 0.91706605665566 0.48794156125595 
C35   C     0.08293505909281 0.13522721891012 0.48791116423557 
C36   C     0.86476193421717 0.94769272794025 0.48795325215629 
C37   C     0.11332040053796 0.78826864911231 0.59241790523912 
C38   C     0.21172490845643 0.32510778912683 0.59238643413309 
C39   C     0.67492222551603 0.88661166090853 0.59235726090608 
C40   C     0.02011299126520 0.76390717935349 0.63629283659899 
C41   C     0.23609066693165 0.25627346873463 0.63620181898769 
C42   C     0.74377504888874 0.97985246542726 0.63618253966637 
C43   C     0.98114246420484 0.77668391807490 0.65006774388816 
C44   C     0.22331679717424 0.20451832676898 0.64998946696037 
C45   C     0.79553094882535 0.01885230865824 0.64993856090813 
C46   C     0.01044506172772 0.92648792320625 0.47144161208350 
C47   C     0.07350286110875 0.08389485416799 0.47146714286084 
C48   C     0.91609139318822 0.98960606247862 0.47146908911558 
C49   C     0.95067610000308 0.84068997783489 0.59928638255824 
C50   C     0.15930320830386 0.10999104637001 0.59928334909700 
C51   C     0.89003251777868 0.04936622774639 0.59918766360116 
C52   C     0.95946082514983 0.88893483740859 0.53399372556356 
C53   C     0.11105405418240 0.07049069245305 0.53401450664788 
C54   C     0.92951277626629 0.04059790280042 0.53394749050508 
