data_stdin
_audit_creation_method 'critic2'
_audit_creation_date 2023-8-11
_chemical_formula_sum 'C18 H12'
_cell_formula_units_Z 2
_cell_length_a        15.2727075719
_cell_length_b         3.8956612403
_cell_length_c         9.8115313729
_cell_angle_alpha        89.9991
_cell_angle_beta        79.0017
_cell_angle_gamma        90.0035
_cell_volume           573.037653
_space_group_crystal_system monoclinic
_space_group_IT_number 4
_space_group_name_H-M_alt 'P2_1'
_space_group_name_Hall 'P 2yb'
loop_
_symmetry_equiv_pos_site_id
_symmetry_equiv_pos_as_xyz
 1 'x,y,z'
 2 '-x,-1/2+y,-z'
loop_
_atom_site_label
_atom_site_type_symbol
_atom_site_fract_x
_atom_site_fract_y
_atom_site_fract_z
H1    H     0.83036363968886 0.99316269943966 0.46474275002275 
H2    H     0.78883147021123 0.15850081981518 0.24598192950195 
H3    H     0.64598742998459 0.46808473100587 0.24365219002436 
H4    H     0.54164351972922 0.57371937886645 0.46645368048759 
H5    H     0.49880794009868 0.50104476955862 0.71355649030346 
H6    H     0.89991339969503 0.28314813881555 0.56652570048306 
H7    H     0.52867712989930 0.25137214103497 0.93369122023824 
H8    H     0.62290660993608 0.96128969890043 0.06277544991286 
H9    H     0.77000001028403 0.72571784987195 0.08602891997303 
H10   H     0.04655730991883 0.12631785915826 0.60761028017757 
H11   H     0.92843243025372 0.67366630886044 0.99872479024899 
H12   H     0.06264551985428 0.79291801043711 0.82000457050527 
C1    C     0.76955771972709 0.13910774941562 0.46779551993923 
C2    C     0.71393980029734 0.21220885121614 0.59763408016042 
C3    C     0.73599145006287 0.12343163969228 0.73064584988187 
C4    C     0.74545862991923 0.22758647972756 0.34350019979757 
C5    C     0.62814015989620 0.35804646940273 0.59398772958527 
C6    C     0.82506753998593 0.04213761054195 0.75194162954904 
C7    C     0.66548332982843 0.11592366929187 0.84814655034477 
C8    C     0.66418213964538 0.39575706087553 0.34180167051766 
C9    C     0.60634062980243 0.45592548086337 0.46566838973223 
C10   C     0.83598753965703 0.88938156886870 0.88071373023185 
C11   C     0.56296184968147 0.38438270954124 0.71867849011470 
C12   C     0.90409936003742 0.12979115884109 0.65717725040917 
C13   C     0.57986596998795 0.25093744992232 0.83961386034494 
C14   C     0.67942320991330 0.97363626901556 0.97628708004954 
C15   C     0.76066504018767 0.84800321911894 0.99002458035732 
C16   C     0.98770311988207 0.04574441905770 0.68166299966986 
C17   C     0.92197816984854 0.79711692077811 0.90158638031895 
C18   C     0.99694428016874 0.86728722946427 0.80266980005983 
