data_stdin
_audit_creation_method 'critic2'
_audit_creation_date 2023-8-11
_chemical_formula_sum 'C18 H12'
_cell_formula_units_Z 4
_cell_length_a        10.3041885533
_cell_length_b        13.6052566900
_cell_length_c         9.0484164635
_cell_angle_alpha        90.0000
_cell_angle_beta        71.8937
_cell_angle_gamma        90.0000
_cell_volume          1205.692956
_space_group_crystal_system monoclinic
_space_group_IT_number 14
_space_group_name_H-M_alt 'P2_1/c'
_space_group_name_Hall '-P 2ybc'
loop_
_symmetry_equiv_pos_site_id
_symmetry_equiv_pos_as_xyz
 1 'x,y,z'
 2 '-x,-y,-z'
 3 '-x,-1/2+y,-1/2-z'
 4 'x,-1/2-y,-1/2+z'
loop_
_atom_site_label
_atom_site_type_symbol
_atom_site_fract_x
_atom_site_fract_y
_atom_site_fract_z
H1    H     0.44379206975810 0.84780567988534 0.20356765039002 
H2    H     0.19772545997299 0.84532226963815 0.32990283997914 
H3    H     0.10080693955364 0.85845405971050 0.61957642008534 
H4    H     0.25978131967085 0.86376580989699 0.77820698051262 
H5    H     0.48580258984126 0.85309199033855 0.79991935955373 
H6    H     0.54508581004615 0.96969807969728 0.13356847971638 
H7    H     0.73429731968001 0.83232673991362 0.67650402024017 
H8    H     0.92951096060905 0.82023390983464 0.45288151948197 
H9    H     0.04311929972095 0.83528960027980 0.16780187998503 
H10   H     0.66812988948717 0.00505738016997 0.86027775040873 
H11   H     0.03611226029861 0.88760302964474 0.91704150030002 
H12   H     0.91289091011920 0.96085003023013 0.74674532947512 
C1    C     0.40499798045052 0.85833287981490 0.32848949996822 
C2    C     0.49821666952642 0.86834506984056 0.41466006008384 
C3    C     0.64529456032116 0.87330222007924 0.34480310018377 
C4    C     0.26533859992478 0.85449611987329 0.40053215954802 
C5    C     0.44199082061237 0.86505510007595 0.58089498949495 
C6    C     0.71428037982946 0.89783535988948 0.18346906979696 
C7    C     0.72754170011657 0.85314589982530 0.44138620953350 
C8    C     0.21083213054745 0.86016914982328 0.56355161970638 
C9    C     0.29868101976265 0.86377660986962 0.65167082989871 
C10   C     0.85843095955130 0.88083758033892 0.11999448028019 
C11   C     0.53045510031677 0.85667985971596 0.67404748990098 
C12   C     0.65001221009683 0.94548135027940 0.08537716021144 
C13   C     0.66772563958699 0.84580007990070 0.60585038038537 
C14   C     0.87138744016586 0.83981618984560 0.37513800944342 
C15   C     0.93394231011712 0.84849106000825 0.21880753948665 
C16   C     0.71996121954543 0.96751121989703 0.93202655045172 
C17   C     0.92681173990114 0.90170830006606 0.96166177999457 
C18   C     0.85885781945133 0.94310700981682 0.86758959052849 
