data_stdin
_audit_creation_method 'critic2'
_audit_creation_date 2023-8-11
_chemical_formula_sum 'C18 H12'
_cell_formula_units_Z 4
_cell_length_a        17.0035502209
_cell_length_b         7.1283221900
_cell_length_c        10.1748534145
_cell_angle_alpha        90.0000
_cell_angle_beta       105.5326
_cell_angle_gamma        90.0000
_cell_volume          1188.220360
_space_group_crystal_system monoclinic
_space_group_IT_number 5
_space_group_name_H-M_alt 'C2'
_space_group_name_Hall 'C 2y'
loop_
_symmetry_equiv_pos_site_id
_symmetry_equiv_pos_as_xyz
 1 'x,y,z'
 2 '-1/2-x,-1/2+y,-z'
 3 '-1/2+x,-1/2+y,z'
 4 '-x,y,-z'
loop_
_atom_site_label
_atom_site_type_symbol
_atom_site_fract_x
_atom_site_fract_y
_atom_site_fract_z
H1    H     0.11769048988613 0.47159478011012 0.08782479982605 
H2    H     0.98437737968112 0.47624667976822 0.13843388951127 
H3    H     0.96580746010966 0.65067426932363 0.33999310010126 
H4    H     0.08616418980332 0.80157946046209 0.50020143018957 
H5    H     0.23214212991451 0.85343146997229 0.57701817002082 
H6    H     0.14685164018884 0.67957312042006 0.97619687996874 
H7    H     0.37011318984028 0.80658261940828 0.54628768007315 
H8    H     0.45872972996729 0.69920377037371 0.41293048040542 
H9    H     0.48163285012257 0.59535782006977 0.19477728969966 
H10   H     0.17473473986920 0.64262603038322 0.75438683981532 
H11   H     0.42923344965852 0.55709356008784 0.94945146960083 
H12   H     0.31520298017760 0.57461955952726 0.73771481012170 
C1    C     0.11028959020889 0.55314304957683 0.17377444011841 
C2    C     0.17896961987247 0.64667645934582 0.25834506003475 
C3    C     0.25801987996782 0.65419237982510 0.23002893992271 
C4    C     0.03541924969895 0.55339346038388 0.20328811982351 
C5    C     0.16990166966402 0.72701578000203 0.38276991952129 
C6    C     0.27111601003610 0.62855327997557 0.09617635042564 
C7    C     0.32684486025956 0.69690246945629 0.34029459040470 
C8    C     0.02519348974509 0.64898205057802 0.31872477998802 
C9    C     0.09187206015979 0.73263468936369 0.40753344032224 
C10   C     0.35288351972351 0.60502283958590 0.08483539975190 
C11   C     0.24002428011231 0.79155172048957 0.48358728981525 
C12   C     0.20822950003547 0.64330106978539 0.97282043956466 
C13   C     0.31617499027959 0.76683208947579 0.46589880034089 
C14   C     0.40722416985033 0.67316959968522 0.32492926962073 
C15   C     0.41993033992120 0.61889486017611 0.20358474960817 
C16   C     0.22417236986043 0.62630258999941 0.84704790022812 
C17   C     0.36684288996641 0.58024332934591 0.95497634980946 
C18   C     0.30370611978954 0.59049548930132 0.83724096040626 
