data_stdin
_audit_creation_method 'critic2'
_audit_creation_date 2023-8-11
_chemical_formula_sum 'C18 H12'
_cell_formula_units_Z 8
_cell_length_a        17.9277272852
_cell_length_b        11.9496532823
_cell_length_c        13.0754606959
_cell_angle_alpha        89.9988
_cell_angle_beta        59.7965
_cell_angle_gamma        89.9989
_cell_volume          2420.882839
_space_group_crystal_system monoclinic
_space_group_IT_number 15
_space_group_name_H-M_alt 'C2/c'
_space_group_name_Hall '-C 2yc'
loop_
_symmetry_equiv_pos_site_id
_symmetry_equiv_pos_as_xyz
 1 'x,y,z'
 2 '-1/2-x,-1/2-y,-z'
 3 '-1/2-x,-1/2+y,-1/2-z'
 4 '-1/2+x,-1/2-y,-1/2+z'
 5 '-1/2+x,-1/2+y,z'
 6 '-x,-y,-z'
 7 '-x,y,-1/2-z'
 8 'x,-y,-1/2+z'
loop_
_atom_site_label
_atom_site_type_symbol
_atom_site_fract_x
_atom_site_fract_y
_atom_site_fract_z
H1    H     0.45125180004526 0.67707671000292 0.93971419984400 
H2    H     0.53262495003019 0.82227419024063 0.97151535981515 
H3    H     0.45733989011048 0.95936215028622 0.13826710012026 
H4    H     0.29772367996022 0.95323152020605 0.26135104013023 
H5    H     0.16068544966518 0.87787005996934 0.30665131033886 
H6    H     0.43525794982307 0.53022476010189 0.00122118994183 
H7    H     0.07449642992013 0.74374942977765 0.26304706015799 
H8    H     0.06294001009214 0.58738284999545 0.16116201018695 
H9    H     0.12741050008443 0.43165727994245 0.01755789015113 
H10   H     0.49174538038549 0.36483922023531 0.87663243967548 
H11   H     0.24948769027057 0.31731891017758 0.88990342968158 
H12   H     0.40101878993819 0.25908750997677 0.81317815031715 
C1    C     0.41720181019010 0.73205078000779 0.01546771017094 
C2    C     0.32671321033161 0.71981638032957 0.09056020966891 
C3    C     0.27576723021112 0.63183287986638 0.07851010018263 
C4    C     0.46327403004893 0.81610980029529 0.03204182972835 
C5    C     0.28369309988052 0.80608045983699 0.17716687983914 
C6    C     0.31119001993542 0.53030084034452 0.00964648007055 
C7    C     0.18475780997327 0.64640060038568 0.13765824955933 
C8    C     0.42103987025787 0.89400423971794 0.12437400002073 
C9    C     0.33223446009403 0.88999785009141 0.19383036035738 
C10   C     0.25709182020337 0.46165981986417 0.98359142957981 
C11   C     0.19176409982173 0.81106643003313 0.24211221041677 
C12   C     0.39535984982333 0.48900908039743 0.97190586977678 
C13   C     0.14452903003381 0.73639140959328 0.21902979980899 
C14   C     0.13211333000979 0.57172994972119 0.11602980966439 
C15   C     0.16735192004342 0.48572013022044 0.03740728962296 
C16   C     0.42701373007800 0.39377165991445 0.90300479003492 
C17   C     0.29160241980890 0.36631514974353 0.91028793000642 
C18   C     0.37585465020815 0.33337073005274 0.86851103008570 
