data_stdin
_audit_creation_method 'critic2'
_audit_creation_date 2023-8-11
_chemical_formula_sum 'C18 H12'
_cell_formula_units_Z 4
_cell_length_a        10.2052049396
_cell_length_b        29.7886553182
_cell_length_c         3.8533808528
_cell_angle_alpha        90.0804
_cell_angle_beta        90.0018
_cell_angle_gamma        89.9960
_cell_volume          1171.424049
_space_group_crystal_system monoclinic
_space_group_IT_number 7
_space_group_name_H-M_alt 'Pc'
_space_group_name_Hall 'P -2yc'
loop_
_symmetry_equiv_pos_site_id
_symmetry_equiv_pos_as_xyz
 1 'x,y,z'
 2 '-1/2-x,-1/2+y,-1/2+z'
loop_
_atom_site_label
_atom_site_type_symbol
_atom_site_fract_x
_atom_site_fract_y
_atom_site_fract_z
H1    H     0.44434262960775 0.54355417014836 0.00351891925698 
H2    H     0.55557331952773 0.45650726009918 0.50318319111207 
H3    H     0.29976425956155 0.48184548986972 0.83690931942519 
H4    H     0.70000760967276 0.51817581995155 0.33615000058342 
H5    H     0.08410757041438 0.49721533992377 0.55396410911188 
H6    H     0.91570359958218 0.50273251999259 0.05339457917260 
H7    H     0.01221462019437 0.57595582008489 0.47237622940674 
H8    H     0.98776511005876 0.42397260009656 0.97224158935149 
H9    H     0.04451955999605 0.65594021010874 0.55568859973438 
H10   H     0.95562343011011 0.34402138999683 0.05586260945634 
H11   H     0.57556042038259 0.56774392008620 0.67623676907301 
H12   H     0.42440794955061 0.43217469987487 0.17625434943343 
H13   H     0.17597698045851 0.71855344987512 0.79426643905462 
H14   H     0.82429764024632 0.28147867989064 0.29475700872776 
H15   H     0.36892014951137 0.74658435996704 0.06964046964514 
H16   H     0.63136994985705 0.25350457010393 0.56974642016606 
H17   H     0.59667050965916 0.73689365988209 0.28046115043906 
H18   H     0.40351968044695 0.26320518011227 0.77998126874707 
H19   H     0.81119247998000 0.56471504998646 0.77721730886020 
H20   H     0.18877818977318 0.43518907002859 0.27710155876792 
H21   H     0.79691094025420 0.69292803006008 0.28978823977039 
H22   H     0.20320973022292 0.30712061992771 0.78902550126144 
H23   H     0.92492743973544 0.62649485999578 0.09520200110516 
H24   H     0.07509963994480 0.37347032004584 0.59463959035004 
C1    C     0.35381869024837 0.55121411002399 0.86805396951389 
C2    C     0.64610597967555 0.44880672989591 0.36773870078998 
C3    C     0.31987839995282 0.59661372012264 0.80286580080377 
C4    C     0.68013386025168 0.40338618985913 0.30276014907920 
C5    C     0.40419005994483 0.63433380008956 0.88412718915219 
C6    C     0.59588758037577 0.36567930997125 0.38408212055805 
C7    C     0.27073438006323 0.51626724998855 0.78199181068705 
C8    C     0.72911351973617 0.48373560004597 0.28146803949406 
C9    C     0.19044840978333 0.60507676995632 0.67300116018944 
C10   C     0.80958250005095 0.39489827994374 0.17293954962154 
C11   C     0.54422915963980 0.63102419016765 0.94110498020016 
C12   C     0.45583142016481 0.36897726000203 0.44089894917851 
C13   C     0.34632268042074 0.67754687984529 0.90534648890365 
C14   C     0.65384264046307 0.32248813007231 0.40544741129172 
C15   C     0.14841835987373 0.52482426996088 0.62712080954623 
C16   C     0.85144984979067 0.47514026999600 0.12666954973256 
C17   C     0.10868308009066 0.56865954004966 0.57928029092762 
C18   C     0.89127601954768 0.43129323009501 0.07906467028718 
C19   C     0.61247857037597 0.66823926989296 0.09383828914578 
C20   C     0.38762168047700 0.33179178999347 0.59339759977768 
C21   C     0.14259860980570 0.65000836994970 0.65711383059254 
C22   C     0.85753045024273 0.34997175994137 0.15725549108394 
C23   C     0.62128015991025 0.59431243988933 0.82624945983969 
C24   C     0.37872889964306 0.40564079007581 0.32614179981451 
C25   C     0.21565889960228 0.68459822990585 0.78585019054477 
C26   C     0.78454079992100 0.31541991012853 0.28613037080802 
C27   C     0.41831056967379 0.71431852992679 0.04665364974832 
C28   C     0.58190512975717 0.28574750001809 0.54661916116238 
C29   C     0.54446769005475 0.70922895009255 0.15730280039120 
C30   C     0.45569684991607 0.29084026009858 0.65694411968650 
C31   C     0.75522175036748 0.59293396009669 0.87842335998616 
C32   C     0.24477928971559 0.40700798000141 0.37820792037265 
C33   C     0.74861877012598 0.66506924983670 0.15825592976680 
C34   C     0.25146430988641 0.33494939986986 0.65762816908243 
C35   C     0.81956661991423 0.62801294997054 0.05370836955024 
C36   C     0.18046662974774 0.37196251996099 0.55321549962132 
