data_stdin
_audit_creation_method 'critic2'
_audit_creation_date 2023-8-11
_chemical_formula_sum 'C18 H12'
_cell_formula_units_Z 4
_cell_length_a        11.8750279818
_cell_length_b         8.2910499703
_cell_length_c        12.6317644387
_cell_angle_alpha        89.9995
_cell_angle_beta       109.9625
_cell_angle_gamma        90.0003
_cell_volume          1168.953606
_space_group_crystal_system monoclinic
_space_group_IT_number 15
_space_group_name_H-M_alt 'C2/c'
_space_group_name_Hall '-C 2yc'
loop_
_symmetry_equiv_pos_site_id
_symmetry_equiv_pos_as_xyz
 1 'x,y,z'
 2 '-x,-y,-z'
 3 '-x,-1/2+y,-1/2-z'
 4 'x,-1/2-y,-1/2+z'
 5 '-1/2+x,-1/2+y,z'
 6 '-1/2-x,-1/2-y,-z'
 7 '-1/2-x,y,-1/2-z'
 8 '-1/2+x,-y,-1/2+z'
loop_
_atom_site_label
_atom_site_type_symbol
_atom_site_fract_x
_atom_site_fract_y
_atom_site_fract_z
H1    H     0.65827374998828 0.90335638049391 0.72439904000941 
H2    H     0.54448038996503 0.02932922999308 0.83120976979701 
H3    H     0.50364086005919 0.87728586988248 0.98555968966046 
H4    H     0.56773202982574 0.59306150977865 0.02125476961159 
H5    H     0.64508705985280 0.34786018969116 0.96632361036229 
H6    H     0.71863177983626 0.20421238968088 0.83084403020275 
C1    C     0.64374635011026 0.83612635954506 0.79244077993368 
C2    C     0.68478060020006 0.67446179948721 0.81269256961893 
C3    C     0.75000525028180 0.59316477019148 0.74999592001011 
C4    C     0.57872676009759 0.90730815956259 0.85232045978871 
C5    C     0.65002512036782 0.58402370015290 0.89336451027838 
C6    C     0.75000869974206 0.42184992042739 0.74999701987284 
C7    C     0.55363232032255 0.82112823052456 0.93758712026737 
C8    C     0.58894996999508 0.66225305954834 0.95726126037773 
C9    C     0.67020340016052 0.41434450049588 0.90338423003322 
C10   C     0.71216302969786 0.33534849971220 0.82957931005613 
