data_stdin
_audit_creation_method 'critic2'
_audit_creation_date 2023-8-11
_chemical_formula_sum 'C18 H12'
_cell_formula_units_Z 4
_cell_length_a        10.2386313095
_cell_length_b         3.8560269335
_cell_length_c        29.1980047348
_cell_angle_alpha        90.0025
_cell_angle_beta        90.0044
_cell_angle_gamma        89.9999
_cell_volume          1152.750014
_space_group_crystal_system orthorhombic
_space_group_IT_number 19
_space_group_name_H-M_alt 'P2_12_12_1'
_space_group_name_Hall 'P 2ac 2ab'
loop_
_symmetry_equiv_pos_site_id
_symmetry_equiv_pos_as_xyz
 1 'x,y,z'
 2 '-1/2-x,-y,-1/2+z'
 3 '-x,-1/2+y,-1/2-z'
 4 '-1/2+x,-1/2-y,-z'
loop_
_atom_site_label
_atom_site_type_symbol
_atom_site_fract_x
_atom_site_fract_y
_atom_site_fract_z
H1    H     0.23396300972919 0.21276100010192 0.54673611992824 
H2    H     0.38316277958853 0.05406324992173 0.48492267012458 
H3    H     0.59701473033676 0.76914980005691 0.50226659008853 
H4    H     0.66356843025122 0.68754813126211 0.58308209011575 
H5    H     0.62828122042548 0.78203047893043 0.66408177012976 
H6    H     0.10318414036818 0.87910609125483 0.57139195994719 
H7    H     0.49570855993694 0.04252308082468 0.72647041990980 
H8    H     0.30163217988424 0.31937048914816 0.75341158996682 
H9    H     0.07138476960231 0.49459156113427 0.74289738014795 
H10   H     0.86781528968366 0.96905202002973 0.56686214013655 
H11   H     0.87176229011447 0.46603728968781 0.69875486999529 
H12   H     0.74910498994954 0.27474464883511 0.62970244000037 
C1    C     0.32395768040046 0.07830976983661 0.55521085988259 
C2    C     0.35555933997715 0.01676667040077 0.60180921014468 
C3    C     0.26981704956893 0.10140177933364 0.63971586989504 
C4    C     0.40917183033237 0.99357800015612 0.52018064015214 
C5    C     0.48431849966510 0.88921055969391 0.61137380015279 
C6    C     0.12989593025640 0.14889435032772 0.63575553994149 
C7    C     0.32660790965516 0.13580476076621 0.68380241001515 
C8    C     0.53076378046965 0.84013556071998 0.52987877995902 
C9    C     0.56768732021752 0.79285033992981 0.57488763996090 
C10   C     0.05914408977811 0.29734502885320 0.67336357003034 
C11   C     0.53074957961236 0.88317668908022 0.65741934007956 
C12   C     0.05545301984519 0.02807281975084 0.59806361000676 
C13   C     0.45723313982951 0.02258993046890 0.69178472005659 
C14   C     0.25301872999469 0.28038384907626 0.72061649991833 
C15   C     0.12553080018616 0.37425679041109 0.71503631001471 
C16   C     0.92162251998869 0.07284880071562 0.59595680998563 
C17   C     0.92255430010090 0.34716421897623 0.66996249996984 
C18   C     0.85446977039655 0.24079183877608 0.63166670001882 
