data_stdin
_audit_creation_method 'critic2'
_audit_creation_date 2023-8-11
_chemical_formula_sum 'C18 H12'
_cell_formula_units_Z 4
_cell_length_a        14.7418120602
_cell_length_b        13.8054946902
_cell_length_c         5.7927536131
_cell_angle_alpha        89.9981
_cell_angle_beta        90.0001
_cell_angle_gamma        90.0006
_cell_volume          1178.929676
_space_group_crystal_system orthorhombic
_space_group_IT_number 19
_space_group_name_H-M_alt 'P2_12_12_1'
_space_group_name_Hall 'P 2ac 2ab'
loop_
_symmetry_equiv_pos_site_id
_symmetry_equiv_pos_as_xyz
 1 'x,y,z'
 2 '-1/2+x,-1/2-y,-z'
 3 '-1/2-x,-y,-1/2+z'
 4 '-x,-1/2+y,-1/2-z'
loop_
_atom_site_label
_atom_site_type_symbol
_atom_site_fract_x
_atom_site_fract_y
_atom_site_fract_z
H1    H     0.34945197005080 0.82229484978013 0.01356619046898 
H2    H     0.29216148026298 0.71807831999783 0.32200877069575 
H3    H     0.39520358979789 0.66283453967031 0.64031989978430 
H4    H     0.55869875025016 0.70259211968111 0.62085978985129 
H5    H     0.68761842007410 0.76739042968764 0.40750985015693 
H6    H     0.35044649974682 0.96789550982604 0.06667616923737 
H7    H     0.74941112026826 0.85568760002692 0.07051021966640 
H8    H     0.72755382030417 0.94912027022257 0.71904422007991 
H9    H     0.62675876986087 0.03067303969360 0.43709273998870 
H10   H     0.25799565028514 0.07066149997107 0.81922121050646 
H11   H     0.47876742006781 0.09475346977730 0.33580632075210 
H12   H     0.31902618979997 0.12937439030743 0.43837258983172 
C1    C     0.39475368017113 0.80143471025209 0.15282137066223 
C2    C     0.48648725986332 0.83226845982388 0.14734394986363 
C3    C     0.52232178981217 0.89811983974648 0.97563134067960 
C4    C     0.36274668974056 0.74130110965815 0.32571988916495 
C5    C     0.54706674989399 0.78966749976273 0.31193124056137 
C6    C     0.46647459974459 0.96194658032924 0.83765754941665 
C7    C     0.61764894989903 0.90034548009324 0.94060612960657 
C8    C     0.42084117006803 0.70893309987323 0.50262879997327 
C9    C     0.51206196000805 0.73160634992363 0.49259861986110 
C10   C     0.50457542972212 0.00635208983543 0.63631285991894 
C11   C     0.64247392992134 0.80190083022270 0.28350640039809 
C12   C     0.37723783981435 0.98965488987126 0.90025720996468 
C13   C     0.67641292986413 0.85118453971240 0.09804006950611 
C14   C     0.65441426020488 0.95079998035913 0.74660106974508 
C15   C     0.59928277011374 0.99718185021730 0.59236185078592 
C16   C     0.32534277030213 0.04922187027599 0.76098159955121 
C17   C     0.44917769966525 0.06393914011104 0.49156512075041 
C18   C     0.36021096976656 0.08377668984664 0.55006827084292 
