data_stdin
_audit_creation_method 'critic2'
_audit_creation_date 2023-8-11
_chemical_formula_sum 'C18 H12'
_cell_formula_units_Z 2
_cell_length_a         9.9983820290
_cell_length_b         8.2627097880
_cell_length_c         7.9644769337
_cell_angle_alpha        98.2342
_cell_angle_beta        79.0364
_cell_angle_gamma        75.3946
_cell_volume           612.304089
_space_group_crystal_system triclinic
_space_group_IT_number 2
_space_group_name_H-M_alt 'P-1'
_space_group_name_Hall '-P 1'
loop_
_symmetry_equiv_pos_site_id
_symmetry_equiv_pos_as_xyz
 1 'x,y,z'
 2 '-x,-y,-z'
loop_
_atom_site_label
_atom_site_type_symbol
_atom_site_fract_x
_atom_site_fract_y
_atom_site_fract_z
H1    H     0.29919754028879 0.45053190000554 0.90936311016686 
H2    H     0.45050296031578 0.48809970056908 0.64804447997802 
H3    H     0.71005426992648 0.33753549056395 0.56409620991200 
H4    H     0.81796471017715 0.16359351978666 0.76153838998446 
H5    H     0.79896563029560 0.07622081981691 0.03955016002484 
H6    H     0.20610268969165 0.27004907991857 0.90691012953426 
H7    H     0.65294384981519 0.07917731992535 0.32991088015679 
H8    H     0.42933507063319 0.14507151969510 0.53235073939751 
H9    H     0.16546626975402 0.23614474963334 0.60537465004544 
H10   H     0.94845621968180 0.32172269038524 0.97463555022603 
H11   H     0.94598281015854 0.30901550996055 0.51361357028996 
H12   H     0.81347346980670 0.34868709010449 0.28009583938871 
C1    C     0.41082912938309 0.37866035052260 0.87359192056934 
C2    C     0.46669969966829 0.27286581998155 0.98387186937192 
C3    C     0.38096433032020 0.24425195980834 0.13903799984095 
C4    C     0.49682633941218 0.40226901037278 0.72684711013569 
C5    C     0.61845342935053 0.20386253046696 0.94581353060016 
C6    C     0.22833924019863 0.27238038970157 0.17262744045102 
C7    C     0.45136436011593 0.18462052015800 0.26682803979041 
C8    C     0.64378856008623 0.31977399008012 0.68115024969885 
C9    C     0.70345154053924 0.22336029935339 0.79054466938152 
C10   C     0.15128383963632 0.27215316951202 0.34413775000186 
C11   C     0.68362203052127 0.12756937947949 0.07063388956912 
C12   C     0.14992914009375 0.28674797053238 0.04171411061738 
C13   C     0.60307296054768 0.12697234012965 0.22942008936479 
C14   C     0.37142570999705 0.18262022963176 0.43488226993897 
C15   C     0.22628797005404 0.23230058980347 0.47506951977317 
C16   C     0.00433801953144 0.31234089047838 0.07928544982632 
C17   C     0.00179974976722 0.30389505031308 0.38050266011860 
C18   C     0.92834350001502 0.32582267029104 0.25122095008381 
