data_stdin
_audit_creation_method 'critic2'
_audit_creation_date 2023-8-11
_chemical_formula_sum 'C18 H12'
_cell_formula_units_Z 4
_cell_length_a        32.0293875776
_cell_length_b         5.9705190463
_cell_length_c         6.0052953963
_cell_angle_alpha        90.0004
_cell_angle_beta        89.9807
_cell_angle_gamma        90.0132
_cell_volume          1148.404966
_space_group_crystal_system triclinic
_space_group_IT_number 1
_space_group_name_H-M_alt 'P1'
_space_group_name_Hall 'P 1'
loop_
_symmetry_equiv_pos_site_id
_symmetry_equiv_pos_as_xyz
 1 'x,y,z'
loop_
_atom_site_label
_atom_site_type_symbol
_atom_site_fract_x
_atom_site_fract_y
_atom_site_fract_z
H1    H     0.34736046010196 0.26234386074593 0.48821008010493 
H2    H     0.84732520006644 0.23726498017567 0.51191425991050 
H3    H     0.65276003014751 0.76269068931348 0.01200931045730 
H4    H     0.15256616996891 0.73763767058161 0.98820936049889 
H5    H     0.29457501011341 0.21719573979511 0.77499618023418 
H6    H     0.79457212012301 0.28250516034462 0.22514231009047 
H7    H     0.70553733997482 0.71747570028954 0.72518423020436 
H8    H     0.20532136992278 0.78278152069322 0.27499275989811 
H9    H     0.25460258995525 0.86257664000809 0.81121820041110 
H10   H     0.75466835985941 0.63727090957213 0.18895529976274 
H11   H     0.74543625998038 0.36268075002742 0.68886941947703 
H12   H     0.24528854999117 0.13740791058879 0.31114962961969 
H13   H     0.26644030993244 0.55776223062511 0.53201193942260 
H14   H     0.76652704997322 0.94204762935303 0.46816723074445 
H15   H     0.73355297011756 0.05789619966556 0.96805281051014 
H16   H     0.23347538994249 0.44223148954359 0.03193733073188 
H17   H     0.29917193990860 0.41520476042924 0.20614129061456 
H18   H     0.79922597987831 0.08436038921445 0.79423172986830 
H19   H     0.70083076991609 0.91555256072553 0.29413248068024 
H20   H     0.20077420987920 0.58471704083699 0.70605328040750 
H21   H     0.40262353003152 0.24230519997882 0.50798472942403 
H22   H     0.90260096006788 0.25748876072750 0.49172783989127 
H23   H     0.59748444006216 0.74249086937572 0.99191371926179 
H24   H     0.09729251008672 0.75773611918587 0.00817418999936 
H25   H     0.34941805987331 0.45689414998924 0.89570369068040 
H26   H     0.84943577010622 0.04245822973971 0.10458054949162 
H27   H     0.65061103997901 0.95746720071168 0.60463411945602 
H28   H     0.15054322986373 0.54302426029407 0.39574017959690 
H29   H     0.40047482988583 0.65141173080116 0.70342963038353 
H30   H     0.90051792994084 0.84805169975527 0.29647749919987 
H31   H     0.59955352008529 0.15207085942644 0.79678918974123 
H32   H     0.09945264003478 0.34872690990103 0.20374284020556 
H33   H     0.45074124997347 0.96377639954595 0.66387637071912 
H34   H     0.95077374013380 0.53572960063528 0.33566541923051 
H35   H     0.54928325005901 0.46432850938134 0.83602963928421 
H36   H     0.04919667005371 0.03631137988366 0.16426251016844 
H37   H     0.45539894990633 0.53116260044838 0.46470821986680 
H38   H     0.95540324991334 0.96889233078223 0.53451880071270 
H39   H     0.54470174989025 0.03121646941593 0.03486876955889 
H40   H     0.04449961986632 0.46899127993294 0.96508084958668 
H41   H     0.48348160001915 0.29074395012978 0.80749746049810 
H42   H     0.98348682994284 0.20887320054183 0.19178031981564 
H43   H     0.51655393998651 0.79111065923109 0.69213866033850 
H44   H     0.01647187015454 0.70928550054632 0.30788735078914 
H45   H     0.49532890006005 0.56967684007923 0.11214340006561 
H46   H     0.99535552984658 0.93030355942760 0.88684058955006 
H47   H     0.50472886003024 0.06980091986560 0.38728429951087 
H48   H     0.00458299003426 0.43046991007039 0.61262121033093 
C1    C     0.33199575012492 0.10151761937630 0.50245877950407 
C2    C     0.83199279993536 0.39812301973362 0.49762161937142 
C3    C     0.66808926996961 0.60183061051333 0.99765604030821 
C4    C     0.16792061012554 0.89845011058879 0.00249769015939 
C5    C     0.34202716002517 0.92704756923790 0.35061590974325 
C6    C     0.84203864006630 0.57258689991037 0.64945673997822 
C7    C     0.65803305010681 0.42735807996016 0.14950685012572 
C8    C     0.15790061012177 0.07292317937345 0.85066529012367 
C9    C     0.37498447993199 0.93770834007129 0.18342730008683 
C10   C     0.87498741012667 0.56185841936198 0.81655294028818 
C11   C     0.62507646987592 0.43809067990862 0.31667070066596 
C12   C     0.12495220996628 0.06226949958858 0.68354564930659 
C13   C     0.30128895007254 0.07841873966982 0.66304989927294 
C14   C     0.80130242003083 0.42128814082483 0.33707657941263 
C15   C     0.69879495997613 0.57867376942065 0.83708204919753 
C16   C     0.19861647991588 0.92155485072044 0.16303506042501 
C17   C     0.31568718985525 0.73201236002776 0.35981423927646 
C18   C     0.81572813989354 0.76765581060645 0.64032751953594 
C19   C     0.68434263999569 0.23228561063352 0.14031094969048 
C20   C     0.18424194989158 0.26795701057355 0.85981048032146 
C21   C     0.40794245013538 0.10591941062534 0.17380610981994 
C22   C     0.90793841004512 0.39369744076246 0.82594526928189 
C23   C     0.59212483009871 0.60626159998935 0.32613509008309 
C24   C     0.09199341987557 0.89407247942285 0.67400242050260 
C25   C     0.37496769003658 0.76957789025482 0.01516995956258 
C26   C     0.87498403989329 0.72992600026951 0.98486174002827 
C27   C     0.62507843986557 0.27005515983022 0.48500762965859 
C28   C     0.12497306997322 0.23042015940004 0.51531085025262 
C29   C     0.27813051991888 0.87914669925249 0.68142849940844 
C30   C     0.77817992010177 0.62062757946674 0.31873196937988 
C31   C     0.72191575993688 0.37932241970090 0.81868210916883 
C32   C     0.22177061995245 0.12082997037169 0.18139124004549 
C33   C     0.28499345015402 0.71086195998440 0.52837592976721 
C34   C     0.78505864009703 0.78890629918092 0.47177181033409 
C35   C     0.71502290011646 0.21104651082142 0.97169589925267 
C36   C     0.21492181991421 0.28912762045616 0.02833192957131 
C37   C     0.43426009995443 0.11637807950820 0.97985337952384 
C38   C     0.93426254014933 0.38319876023925 0.01975078077517 
C39   C     0.56578995996930 0.61676472992793 0.52000563930212 
C40   C     0.06568324011774 0.88362717951568 0.48012909068433 
C41   C     0.31932649993905 0.56152496017242 0.19518054020593 
C42   C     0.81936807997820 0.93804786967210 0.80506272986353 
C43   C     0.68069449992150 0.06188828923143 0.30505416042220 
C44   C     0.18061536990655 0.43842856081938 0.69516686922786 
C45   C     0.41797105985479 0.25762788946422 0.34814828937622 
C46   C     0.91796131010439 0.24213669976658 0.65146046995886 
C47   C     0.58211480992892 0.75784786042759 0.15167800059900 
C48   C     0.08195208990208 0.74240393076149 0.84837739937705 
C49   C     0.34715395003702 0.58376387943071 0.02532084945500 
C50   C     0.84717919015086 0.91569982044035 0.97487455938998 
C51   C     0.65287766991104 0.08424873055769 0.47494246025194 
C52   C     0.15279415997888 0.41619236934994 0.52537778976193 
C53   C     0.40276042015468 0.78094325027797 0.83041859065304 
C54   C     0.90278660993203 0.71853281030009 0.16946371059350 
C55   C     0.59727619007343 0.28150132079328 0.66970962051736 
C56   C     0.09717708008283 0.21911107008343 0.33066665060942 
C57   C     0.43059507990024 0.95189968947692 0.80931812063186 
C58   C     0.93061368010512 0.54761033015970 0.19036392970677 
C59   C     0.56944247995459 0.45240669945710 0.69064930007651 
C60   C     0.06934575007913 0.04814807082355 0.30962002923203 
C61   C     0.44866691012118 0.41934842054253 0.32609174060665 
C62   C     0.94866840005127 0.08054860947344 0.67324727941027 
C63   C     0.55141744011647 0.91949656049004 0.17356256060386 
C64   C     0.05124732990263 0.58074090927784 0.82642484966062 
C65   C     0.46494841992895 0.28604695951495 0.95977960035089 
C66   C     0.96495341987936 0.21361847944912 0.03958095042462 
C67   C     0.53510043985539 0.78636724982341 0.53990566955559 
C68   C     0.03499268988613 0.71398326036237 0.46013285017952 
C69   C     0.47181844011479 0.43897370031585 0.12801181965212 
C70   C     0.97182966006835 0.06086575073451 0.87119913039853 
C71   C     0.52824289012052 0.93916445947408 0.37155967029440 
C72   C     0.02810536984904 0.56110033930433 0.62839897977047 
