data_stdin
_audit_creation_method 'critic2'
_audit_creation_date 2023-8-11
_chemical_formula_sum 'C18 H12'
_cell_formula_units_Z 8
_cell_length_a        22.3597831672
_cell_length_b         5.4076310086
_cell_length_c        19.5431474869
_cell_angle_alpha        90.0059
_cell_angle_beta        86.9077
_cell_angle_gamma        90.0044
_cell_volume          2359.588801
_space_group_crystal_system monoclinic
_space_group_IT_number 15
_space_group_name_H-M_alt 'C2/c'
_space_group_name_Hall '-C 2yc'
loop_
_symmetry_equiv_pos_site_id
_symmetry_equiv_pos_as_xyz
 1 'x,y,z'
 2 '-x,-y,-z'
 3 '-x,y,-1/2-z'
 4 'x,-y,-1/2+z'
 5 '-1/2+x,-1/2+y,z'
 6 '-1/2-x,-1/2-y,-z'
 7 '-1/2-x,-1/2+y,-1/2-z'
 8 '-1/2+x,-1/2-y,-1/2+z'
loop_
_atom_site_label
_atom_site_type_symbol
_atom_site_fract_x
_atom_site_fract_y
_atom_site_fract_z
H1    H     0.02824915993706 0.24253673006523 0.29925235996460 
H2    H     0.95820076993394 0.58896966917273 0.31717486018362 
H3    H     0.96985738018634 0.88472727960759 0.41326552974760 
H4    H     0.04842799002093 0.80954815018528 0.49582339014062 
H5    H     0.12797781013755 0.55902478925244 0.53729458977899 
H6    H     0.09914807016120 0.28734049925949 0.23823645006089 
H7    H     0.19629955999507 0.19722608075257 0.52414746980713 
H8    H     0.23674737009192 0.85860015956072 0.46040548989766 
H9    H     0.24124819988126 0.58678417001317 0.35762286982724 
H10   H     0.11740471005384 0.05187859987647 0.13278755990643 
H11   H     0.21664443011203 0.51146134083274 0.24144320008876 
H12   H     0.17314288999396 0.64870711008869 0.13414720015014 
C1    C     0.03567530000959 0.37537051066087 0.33953136022890 
C2    C     0.08509542019172 0.34293663062542 0.38122722018126 
C3    C     0.13128345003140 0.15771730953813 0.36873234007118 
C4    C     0.99515362995773 0.56653312916697 0.35073565023795 
C5    C     0.08671341006728 0.49609500947416 0.44101870023711 
C6    C     0.14213284011194 0.02755124943902 0.30433560002826 
C7    C     0.16884948011840 0.10084742020374 0.42295253983564 
C8    C     0.00115468006000 0.73206624998103 0.40548025986832 
C9    C     0.04533910005672 0.69225721074121 0.45083486007421 
C10   C     0.18000156002200 0.81322541918794 0.30241370024090 
C11   C     0.12839725015143 0.44302544007519 0.49165306998691 
C12   C     0.12157408021234 0.11019275948668 0.24078457024523 
C13   C     0.16618283019578 0.24539730086168 0.48417426980178 
C14   C     0.20930348984137 0.89699428028734 0.41727638979138 
C15   C     0.21239645999889 0.74904638010499 0.36064855975393 
C16   C     0.13288874003919 0.97886986918108 0.18069737001444 
C17   C     0.18894391995794 0.67667000070050 0.24096718007021 
C18   C     0.16511703000852 0.75522840946948 0.18098434999053 
