data_stdin
_audit_creation_method 'critic2'
_audit_creation_date 2023-8-11
_chemical_formula_sum 'C18 H12'
_cell_formula_units_Z 4
_cell_length_a         8.1513075403
_cell_length_b        19.4704794701
_cell_length_c         7.3869083200
_cell_angle_alpha        89.9999
_cell_angle_beta        90.0000
_cell_angle_gamma        90.0007
_cell_volume          1172.375230
_space_group_crystal_system orthorhombic
_space_group_IT_number 19
_space_group_name_H-M_alt 'P2_12_12_1'
_space_group_name_Hall 'P 2ac 2ab'
loop_
_symmetry_equiv_pos_site_id
_symmetry_equiv_pos_as_xyz
 1 'x,y,z'
 2 '-x,-1/2+y,-1/2-z'
 3 '-1/2-x,-y,-1/2+z'
 4 '-1/2+x,-1/2-y,-z'
loop_
_atom_site_label
_atom_site_type_symbol
_atom_site_fract_x
_atom_site_fract_y
_atom_site_fract_z
H1    H     0.07387048997580 0.50927441549252 0.74725458151516 
H2    H     0.94097931937044 0.62124206596409 0.74431466713034 
H3    H     0.09313707361347 0.72555788815021 0.64062446672234 
H4    H     0.38687341404265 0.71509466362895 0.55570833533967 
H5    H     0.63639344358076 0.64862703107623 0.53319789205369 
H6    H     0.07490913341829 0.44610323698328 0.53916531464429 
H7    H     0.78524895853463 0.53960841339541 0.58557201691056 
H8    H     0.79025765844763 0.42212719781807 0.67733981317113 
H9    H     0.64973644596635 0.31072025426280 0.72627021401846 
H10   H     0.94902371534473 0.33253661327877 0.53652866498060 
H11   H     0.40536335241575 0.24174215638859 0.70303528015262 
H12   H     0.11066957843774 0.22883276053175 0.62293943806578 
C1    C     0.14118654901443 0.55292543461372 0.69414738983835 
C2    C     0.30688353708728 0.54443162833707 0.64018578685612 
C3    C     0.39171741548730 0.47892348197142 0.64133592827324 
C4    C     0.06660334775769 0.61674541254548 0.69559419780737 
C5    C     0.39732143038528 0.60561717751529 0.59761459776411 
C6    C     0.31126716496872 0.41248968830321 0.64065759050044 
C7    C     0.56595808332678 0.47985074384213 0.63807513841798 
C8    C     0.15327736746040 0.67561389689538 0.64091092981359 
C9    C     0.31640608824861 0.66980899521749 0.59382280036308 
C10   C     0.40650721367399 0.35196347980343 0.67536048911366 
C11   C     0.57023142382324 0.60203219268251 0.57028100804602 
C12   C     0.14567379543333 0.40264449223538 0.58775434959134 
C13   C     0.65228158523211 0.54186310874610 0.59864523524170 
C14   C     0.65708800739933 0.41852215944979 0.67083504045821 
C15   C     0.57975613072770 0.35719148753632 0.69795143160679 
C16   C     0.07528150658065 0.33807932802548 0.58221189622962 
C17   C     0.33034694359373 0.28668680405688 0.67371012048340 
C18   C     0.16682999423612 0.27946963107791 0.62920783084985 
