data_stdin
_audit_creation_method 'critic2'
_audit_creation_date 2023-8-11
_chemical_formula_sum 'C18 H12'
_cell_formula_units_Z 8
_cell_length_a        14.3536064980
_cell_length_b         8.2152310008
_cell_length_c        20.1931227311
_cell_angle_alpha        89.9993
_cell_angle_beta        92.4969
_cell_angle_gamma        89.9995
_cell_volume          2378.875849
_space_group_crystal_system monoclinic
_space_group_IT_number 15
_space_group_name_H-M_alt 'C2/c'
_space_group_name_Hall '-C 2yc'
loop_
_symmetry_equiv_pos_site_id
_symmetry_equiv_pos_as_xyz
 1 'x,y,z'
 2 '-1/2-x,-1/2-y,-z'
 3 '-1/2-x,-1/2+y,-1/2-z'
 4 'x,-y,-1/2+z'
 5 '-1/2+x,-1/2+y,z'
 6 '-x,-y,-z'
 7 '-x,y,-1/2-z'
 8 '-1/2+x,-1/2-y,-1/2+z'
loop_
_atom_site_label
_atom_site_type_symbol
_atom_site_fract_x
_atom_site_fract_y
_atom_site_fract_z
H1    H     0.44304231027983 0.11103190957090 0.55869827994491 
H2    H     0.44767118018975 0.93035080023038 0.65404980994551 
H3    H     0.38289730992164 0.01938102053509 0.76149181014071 
H4    H     0.32330630985363 0.30180952037233 0.77176081996297 
H5    H     0.29705684981144 0.57003846018963 0.72745519018998 
H6    H     0.34066540974687 0.11929447054816 0.49138072989335 
H7    H     0.30850923977330 0.76826582028665 0.63520037990170 
H8    H     0.35101109994565 0.83547991971071 0.52619458014473 
H9    H     0.40029037012171 0.75639367982957 0.41419720977119 
H10   H     0.36884593022960 0.04728372007441 0.37707546016142 
H11   H     0.43074966969939 0.54736562051782 0.33341966992414 
H12   H     0.42124223990612 0.25968494041962 0.29717660005232 
C1    C     0.41182253002378 0.15197419988832 0.60375828000352 
C2    C     0.37286992979649 0.31051249970132 0.60649720006204 
C3    C     0.36679227967125 0.42170455949716 0.55071125014106 
C4    C     0.41592308970762 0.04997491968852 0.65834139977066 
C5    C     0.34522059025169 0.36578610050220 0.67009929012970 
C6    C     0.37763541022810 0.37404896024646 0.48235420977942 
C7    C     0.35090822027259 0.58898467035145 0.56395035023159 
C8    C     0.38094918005994 0.10086769044185 0.71896973003061 
C9    C     0.34741369028461 0.25745630956308 0.72461185011063 
C10   C     0.39452269023854 0.49737211053897 0.43407325000658 
C11   C     0.31876804020396 0.53134492955228 0.67890140980299 
C12   C     0.36633436013524 0.21233709015428 0.45870632993512 
C13   C     0.32457938984200 0.63997961998735 0.62808176996198 
C14   C     0.36203054016469 0.70828759940372 0.51355127983916 
C15   C     0.38791224980657 0.66475762958592 0.45176696020639 
C16   C     0.38082541023924 0.17204491011943 0.39349012998869 
C17   C     0.41301348010913 0.45223749013481 0.36827269022596 
C18   C     0.40780013972397 0.29179124020547 0.34824027984222 
