data_stdin
_audit_creation_method 'critic2'
_audit_creation_date 2023-8-11
_chemical_formula_sum 'C18 H12'
_cell_formula_units_Z 4
_cell_length_a         5.4286411723
_cell_length_b        14.7985709824
_cell_length_c        16.8496008621
_cell_angle_alpha        89.9950
_cell_angle_beta       118.1290
_cell_angle_gamma        89.9912
_cell_volume          1193.751705
_space_group_crystal_system triclinic
_space_group_IT_number 1
_space_group_name_H-M_alt 'P 1'
_space_group_name_Hall 'P 1'
loop_
_symmetry_equiv_pos_site_id
_symmetry_equiv_pos_as_xyz
 1 'x,y,z'
loop_
_atom_site_label
_atom_site_type_symbol
_atom_site_fract_x
_atom_site_fract_y
_atom_site_fract_z
H1    H     0.95647576972472 0.31552056983287 0.03467981967896 
H2    H     0.45647765096838 0.81552072004465 0.03468031031636 
H3    H     0.95656162080315 0.68444831997848 0.53469964006272 
H4    H     0.45656207924506 0.18444828987305 0.53469978992434 
H5    H     0.80207787019506 0.24277913014352 0.13369052020964 
H6    H     0.30208007003043 0.74277918032263 0.13369106013394 
H7    H     0.80216749978543 0.75720318970594 0.63370538005746 
H8    H     0.30216770035821 0.25720326030570 0.63370544030082 
H9    H     0.53057656946434 0.32964932990454 0.19392694006822 
H10   H     0.03057770993259 0.82964918014312 0.19392722012437 
H11   H     0.53060875989064 0.67036930973227 0.69393197018183 
H12   H     0.03060848966330 0.17036947024068 0.69393191017403 
H13   H     0.45521316931376 0.49402920991561 0.16266567977681 
H14   H     0.95521287959104 0.99402896970984 0.16266566971094 
H15   H     0.45517253030970 0.50600789031808 0.66266412982231 
H16   H     0.95517196935538 0.00600806976720 0.66266407006861 
H17   H     0.53884818965001 0.63063834022653 0.10284768018903 
H18   H     0.03884688032635 0.13063815010001 0.10284747986303 
H19   H     0.53872801969252 0.36939279991491 0.60283537990524 
H20   H     0.03872756986292 0.86939291988910 0.60283541022031 
H21   H     0.73164055041461 0.31553371989872 0.90417208032026 
H22   H     0.23164253028545 0.81553358021019 0.90417260025402 
H23   H     0.73172577010924 0.68449729990101 0.40419180012935 
H24   H     0.23172634039104 0.18449727992378 0.40419196000224 
H25   H     0.73931185989683 0.71038478012422 0.01631567006342 
H26   H     0.23931005008553 0.21038471031556 0.01631540000949 
H27   H     0.73914836032174 0.28962574002306 0.51629796973618 
H28   H     0.23914811989550 0.78962577010678 0.51629811005938 
H29   H     0.94886029044604 0.71037084997195 0.92250303986320 
H30   H     0.44885852096121 0.21037090990255 0.92250278005131 
H31   H     0.94869697004826 0.28961869025210 0.42248536023354 
H32   H     0.44869687043427 0.78961862977594 0.42248554010232 
H33   H     0.14926519935249 0.63059777031237 0.83596457998844 
H34   H     0.64926416055794 0.13059795993181 0.83596445998921 
H35   H     0.14914528075935 0.36937116018832 0.33595234017627 
H36   H     0.64914543028488 0.86937101995693 0.33595255023346 
H37   H     0.88606218892018 0.24277275009877 0.80517911973574 
H38   H     0.38606451937287 0.74277270025833 0.80517969981207 
H39   H     0.88615070922430 0.75724485019240 0.30519374000953 
H40   H     0.38615105970299 0.25724473022270 0.30519380983713 
H41   H     0.23285507981607 0.49398238999077 0.77615162992136 
H42   H     0.73285507975852 0.99398262007916 0.77615169028481 
H43   H     0.23281463030703 0.50598061010315 0.27615015003926 
H44   H     0.73281476066102 0.00598040973422 0.27615026991969 
H45   H     0.15752594961982 0.32961304002242 0.74491882014777 
H46   H     0.65752726937023 0.82961318014039 0.74491914996606 
H47   H     0.15755764038494 0.67036835978514 0.24492376985321 
H48   H     0.65755771033805 0.17036816009842 0.24492378996567 
C1    C     0.83216117035097 0.35416303985232 0.05752873013806 
C2    C     0.33216255884551 0.85416307995475 0.05752910974397 
C3    C     0.83221704951010 0.64582463967064 0.55754304007768 
C4    C     0.33221730079960 0.14582466026116 0.55754313999029 
C5    C     0.77108448989081 0.44614610978212 0.03177475999343 
C6    C     0.27108507041027 0.94614607966691 0.03177496996453 
C7    C     0.77109576061753 0.55385594006651 0.53178369017376 
C8    C     0.27109587907362 0.05385597012653 0.53178378995510 
C9    C     0.84404733955187 0.49160724979745 0.96941223002650 
C10   C     0.34404761966064 0.99160726024871 0.96941238014893 
C11   C     0.84403626121436 0.50839275022248 0.46941887030938 
C12   C     0.34403647071283 0.00839273027026 0.46941902000942 
C13   C     0.74928860960401 0.31335657982875 0.11502714990663 
C14   C     0.24929017999435 0.81335658004950 0.11502754995470 
C15   C     0.74935530924304 0.68663664019375 0.61504080973263 
C16   C     0.24935542027392 0.18663671012415 0.61504086009811 
C17   C     0.64685205052027 0.49745888023335 0.07600423972553 
C18   C     0.14685202017612 0.99745876975016 0.07600430993374 
C19   C     0.64682759916227 0.50255755996424 0.57600741982232 
C20   C     0.14682743895177 0.00255764004937 0.57600746989229 
C21   C     0.91700330880672 0.44613777028548 0.90705432969811 
C22   C     0.41700400005863 0.94613780030291 0.90705456968543 
C23   C     0.91701438029312 0.55386019031362 0.40706321993490 
C24   C     0.41701472021270 0.05386011967164 0.40706337976130 
C25   C     0.84406165986775 0.58767777990872 0.96941047032520 
C26   C     0.34406103964767 0.08767778028987 0.96941044024742 
C27   C     0.84398800029672 0.41232223017803 0.46940758019992 
C28   C     0.34398804948957 0.91232221969694 0.46940774027806 
C29   C     0.60011258124863 0.36234825020584 0.15012304031871 
C30   C     0.10011354911189 0.86234814032545 0.15012329998851 
C31   C     0.60014036961204 0.63766529016328 0.65012946980289 
C32   C     0.10014019971801 0.13766542025531 0.65012945976848 
C33   C     0.55570598980789 0.45355406991287 0.13208653028605 
C34   C     0.05570618033084 0.95355391008498 0.13208661983674 
C35   C     0.55569458970895 0.54646974975812 0.63208951008428 
C36   C     0.05569426895372 0.04646987986074 0.63208948980362 
C37   C     0.04123107049109 0.49743462021896 0.86281710990602 
C38   C     0.54123123057761 0.99743473001308 0.86281722994732 
C39   C     0.04120662018620 0.50254896970605 0.36282028978099 
C40   C     0.54120688060490 0.00254887001244 0.36282045980590 
C41   C     0.63043878002770 0.59326584989170 0.06759985004083 
C42   C     0.13043790916597 0.09326571987369 0.06759974974872 
C43   C     0.63035333036468 0.40675524014449 0.56759430011490 
C44   C     0.13035306036903 0.90675532023670 0.56759437020704 
C45   C     0.85594151008559 0.35416224993115 0.88131506976567 
C46   C     0.35594301955666 0.85416221974750 0.88131548012393 
C47   C     0.85599684940370 0.64585003001967 0.38132927022457 
C48   C     0.35599728981770 0.14584997018312 0.38132940997238 
C49   C     0.73816089997074 0.63690151972146 0.01960591004840 
C50   C     0.23815975044255 0.13690146000080 0.01960576004376 
C51   C     0.73804854897773 0.36310871998068 0.51959635972167 
C52   C     0.23804839920122 0.86310876019452 0.51959648991441 
C53   C     0.94998044956868 0.63688771027678 0.91921399009749 
C54   C     0.44997937918458 0.13688777015613 0.91921386991592 
C55   C     0.94986817927236 0.36310209027730 0.41920445985970 
C56   C     0.44986821992449 0.86310202979151 0.41920463990385 
C57   C     0.05767125952435 0.59323791981819 0.87121653978316 
C58   C     0.55767057075684 0.09323804994676 0.87121648993893 
C59   C     0.05758588095847 0.40674104990606 0.37121100017363 
C60   C     0.55758604032888 0.90674094008256 0.37121120028099 
C61   C     0.93881589021184 0.31334616018906 0.82382239989446 
C62   C     0.43881760051094 0.81334615972353 0.82382284014470 
C63   C     0.93888212031447 0.68666060971925 0.32383599022192 
C64   C     0.43888244924569 0.18666049988668 0.32383607993397 
C65   C     0.13236965999466 0.45351942022888 0.80673772993265 
C66   C     0.63237007981661 0.95351958000906 0.80673789022582 
C67   C     0.13235816998720 0.54645681974506 0.30674070995132 
C68   C     0.63235837095156 0.04645665991574 0.30674083025356 
C69   C     0.08798019050241 0.36231961024451 0.78871654000080 
C70   C     0.58798134045969 0.86231973010236 0.78871685012022 
C71   C     0.08800744964534 0.63766685991433 0.28872286984507 
C72   C     0.58800764037191 0.13766668995076 0.28872294005026 
