data_stdin
_audit_creation_method 'critic2'
_audit_creation_date 2023-8-11
_chemical_formula_sum 'C18 H12'
_cell_formula_units_Z 4
_cell_length_a        10.0305129332
_cell_length_b         3.9658656960
_cell_length_c        31.2248069384
_cell_angle_alpha        90.0096
_cell_angle_beta        69.5713
_cell_angle_gamma        90.0230
_cell_volume          1163.992771
_space_group_crystal_system triclinic
_space_group_IT_number 2
_space_group_name_H-M_alt 'P-1'
_space_group_name_Hall '-P 1'
loop_
_symmetry_equiv_pos_site_id
_symmetry_equiv_pos_as_xyz
 1 'x,y,z'
 2 '-x,-y,-z'
loop_
_atom_site_label
_atom_site_type_symbol
_atom_site_fract_x
_atom_site_fract_y
_atom_site_fract_z
H1    H     0.44020908006954 0.18365063035677 0.54748296000214 
H2    H     0.55957289002261 0.68361564916420 0.95248901001758 
H3    H     0.38710805036709 0.30325220113331 0.47890983993715 
H4    H     0.61276133993443 0.80362270966299 0.02104991991657 
H5    H     0.13501627031235 0.32355692031832 0.48122923993605 
H6    H     0.86485996004955 0.82361565972733 0.01872497989080 
H7    H     0.94097689004892 0.16237163037206 0.55283703986213 
H8    H     0.05880424019633 0.66180691103592 0.94712933996934 
H9    H     0.86184552985908 0.95264175115960 0.62982748994942 
H10   H     0.13782608988148 0.45197406093115 0.87013472989249 
H11   H     0.45854158011580 0.53344999906669 0.58631237014543 
H12   H     0.54153386995738 0.03356330887257 0.91363708997596 
H13   H     0.91347813031756 0.77976731067564 0.69893242994076 
H14   H     0.08606603028272 0.27903302960517 0.80104498011018 
H15   H     0.06934781027478 0.72952313010455 0.74040668013770 
H16   H     0.93009677970007 0.22870754124561 0.75959439985071 
H17   H     0.30000814050655 0.83253626024842 0.75019867992973 
H18   H     0.69940286987593 0.33150187093006 0.74984616999462 
H19   H     0.67733810995696 0.66534310049707 0.60001864002557 
H20   H     0.32279002968107 0.16580413023389 0.89993932013190 
H21   H     0.53166998036910 0.08788503045540 0.72444221992341 
H22   H     0.46783080968119 0.58724169984145 0.77561118010887 
H23   H     0.72066900014672 0.43365378993924 0.66843871988401 
H24   H     0.27912711996858 0.93354877031465 0.83159443988435 
C1    C     0.32954941963181 0.19956011972722 0.55025822013219 
C2    C     0.67023940979201 0.69942652038290 0.94971538994945 
C3    C     0.22014847011864 0.14240658028240 0.59299678004546 
C4    C     0.77960488964004 0.64201758011900 0.90698120987871 
C5    C     0.24363118006219 0.09870877120393 0.63599207985626 
C6    C     0.75607575016632 0.59823862937822 0.86399429007709 
C7    C     0.29977449012944 0.26100150965802 0.51092343006586 
C8    C     0.70006291054026 0.76105844907311 0.98904118994438 
C9    C     0.07850655061190 0.10745988882824 0.59227848986320 
C10   C     0.92122924984121 0.60693205075218 0.90769671985920 
C11   C     0.37194547015095 0.19850040934793 0.64413485997900 
C12   C     0.62779835965631 0.69812193069103 0.85585947988632 
C13   C     0.13244458025629 0.94978172927509 0.67284133994513 
C14   C     0.86717025959434 0.44917281977802 0.82714591017074 
C15   C     0.15853461002204 0.26523653015832 0.51190987002361 
C16   C     0.84130891982691 0.76513397056889 0.98805192017016 
C17   C     0.05039509034326 0.18046012046205 0.55190512013398 
C18   C     0.94939397953861 0.68001972878212 0.94806262007526 
C19   C     0.39193655960847 0.09448216973240 0.68550019997981 
C20   C     0.60768053974240 0.59392030914621 0.81451573014692 
C21   C     0.96773696023249 0.98371310122884 0.63154859992196 
C22   C     0.03193211987728 0.48307459876103 0.86842379987339 
C23   C     0.47783599040032 0.41294852111540 0.61473208994619 
C24   C     0.52207852023594 0.91287260039266 0.88524924995946 
C25   C     0.99569684947848 0.89241979888885 0.66967742013008 
C26   C     0.00390847962807 0.39176881010896 0.83030073994479 
C27   C     0.15530456949177 0.85589013964106 0.71380943006683 
C28   C     0.84421203042704 0.35516066955849 0.78619373984354 
C29   C     0.28224578015438 0.91481686891697 0.71936208984086 
C30   C     0.71725448011084 0.41403127090752 0.78066087983626 
C31   C     0.60086235997487 0.49286364088083 0.62298797016422 
C32   C     0.39907650994210 0.99291634912827 0.87700329016501 
C33   C     0.51895193954103 0.17816848075847 0.69312663002534 
C34   C     0.48067415032123 0.67767120120599 0.80690527011157 
C35   C     0.62360871043819 0.36943179010288 0.66212429007022 
C36   C     0.37617371002045 0.86923038122641 0.83789857996398 
