data_stdin
_audit_creation_method 'critic2'
_audit_creation_date 2023-8-11
_chemical_formula_sum 'C18 H12'
_cell_formula_units_Z 2
_cell_length_a         7.2264552841
_cell_length_b         4.9209133822
_cell_length_c        16.6067459812
_cell_angle_alpha        89.9992
_cell_angle_beta        81.5334
_cell_angle_gamma        89.9983
_cell_volume           584.112703
_space_group_crystal_system monoclinic
_space_group_IT_number 7
_space_group_name_H-M_alt 'Pc'
_space_group_name_Hall 'P -2yc'
loop_
_symmetry_equiv_pos_site_id
_symmetry_equiv_pos_as_xyz
 1 'x,y,z'
 2 'x,-y,-1/2+z'
loop_
_atom_site_label
_atom_site_type_symbol
_atom_site_fract_x
_atom_site_fract_y
_atom_site_fract_z
H1    H     0.97639337927434 0.11863998062704 0.00507196010381 
H2    H     0.98172900935299 0.76691750076317 0.90138649998383 
H3    H     0.28424690048453 0.59270733088181 0.82809326976866 
H4    H     0.58175070005148 0.80436346028350 0.85639469027958 
H5    H     0.74806588010323 0.13006421974611 0.92319427996421 
H6    H     0.95139206990478 0.05294877092242 0.11343893024455 
H7    H     0.75250655023534 0.50397780956295 0.02343091974019 
H8    H     0.60581031007843 0.78397376915014 0.12716522980103 
H9    H     0.33038174994533 0.92166027055938 0.22657504984225 
H10   H     0.69271072021397 0.18317686964817 0.21562918003997 
H11   H     0.01728330047483 0.84646033904010 0.28960952986648 
H12   H     0.71645458057133 0.59121717996396 0.30394280978348 
C1    C     0.11066772035541 0.04087888018745 0.97703875970097 
C2    C     0.27755488006218 0.14780221953141 0.00025984001241 
C3    C     0.28507035008749 0.33722980931133 0.06698526975063 
C4    C     0.11306654976299 0.84590241948200 0.91677652980143 
C5    C     0.44883388926008 0.06651203904595 0.95123162028770 
C6    C     0.13062681954149 0.39530309918541 0.13128868007068 
C7    C     0.45783236999223 0.47168519008715 0.07076961992280 
C8    C     0.28338290967681 0.74971855899038 0.87428521993367 
C9    C     0.44783743965400 0.86542140941560 0.89041545011161 
C10   C     0.14903264003810 0.61230642050105 0.18750479002035 
C11   C     0.62049326974924 0.19348705052343 0.96193918023932 
C12   C     0.96376447981432 0.23952056045281 0.14671398015342 
C13   C     0.62304694948606 0.39761971067327 0.01728335982567 
C14   C     0.47160263979260 0.68194850929807 0.12872356992648 
C15   C     0.32106543966831 0.75658988101591 0.18363638029152 
C16   C     0.81819866071755 0.30867104972983 0.20692692991814 
C17   C     0.99828340935561 0.67848354954336 0.24892683002016 
C18   C     0.83259309071922 0.53460582978297 0.25749146971448 
