data_stdin
_audit_creation_method 'critic2'
_audit_creation_date 2023-8-11
_chemical_formula_sum 'C18 H12'
_cell_formula_units_Z 4
_cell_length_a        10.1756669871
_cell_length_b         7.1986011116
_cell_length_c        16.4947972989
_cell_angle_alpha        89.9996
_cell_angle_beta        99.7637
_cell_angle_gamma        90.0005
_cell_volume          1190.752306
_space_group_crystal_system monoclinic
_space_group_IT_number 14
_space_group_name_H-M_alt 'P2_1/c'
_space_group_name_Hall '-P 2ybc'
loop_
_symmetry_equiv_pos_site_id
_symmetry_equiv_pos_as_xyz
 1 'x,y,z'
 2 '-x,-y,-z'
 3 '-x,-1/2+y,-1/2-z'
 4 'x,-1/2-y,-1/2+z'
loop_
_atom_site_label
_atom_site_type_symbol
_atom_site_fract_x
_atom_site_fract_y
_atom_site_fract_z
H1    H     0.40038387974398 0.80777611964776 0.87145908994213 
H2    H     0.16019333997316 0.85480193067180 0.84204189984765 
H3    H     0.00650083993048 0.58618271940803 0.80238641024242 
H4    H     0.10272241014418 0.27587719009347 0.78342852998344 
H5    H     0.29077961994098 0.07607660958162 0.77891515997263 
H6    H     0.50135571035665 0.77608327999085 0.97636903002798 
H7    H     0.53465832033596 0.02382678936126 0.80275577979375 
H8    H     0.75502544975106 0.12611723949715 0.84149709025568 
H9    H     0.92158278981890 0.36742858971376 0.89435077992513 
H10   H     0.66951278991561 0.00244152026081 0.03298740005803 
H11   H     0.97508424060081 0.66694324012657 0.95603252024666 
H12   H     0.90785379975942 0.95634153941241 0.02124085982058 
C1    C     0.33666645947556 0.68725588991089 0.85814556987929 
C2    C     0.39490712050375 0.50854874044773 0.85570401025853 
C3    C     0.53686622997656 0.47078151966803 0.87784553026002 
C4    C     0.20038322010036 0.71507008067710 0.83935457983550 
C5    C     0.30661920044053 0.36095732998355 0.82303971008009 
C6    C     0.63448923020021 0.60007104974135 0.92054358000110 
C7    C     0.58421379986559 0.29671869053919 0.85382216026522 
C8    C     0.11391526009001 0.56523983961831 0.81513467017534 
C9    C     0.16742077951505 0.39225170962606 0.80540717999312 
C10   C     0.77386011986223 0.56461954985029 0.92194499014045 
C11   C     0.35914953022773 0.18472972039967 0.80573775024740 
C12   C     0.60235514016506 0.75745515957169 0.96511095010672 
C13   C     0.49349976989124 0.15567605048417 0.81888802008104 
C14   C     0.72370500014241 0.26053635971477 0.86179572020811 
C15   C     0.81533942965633 0.39298506969536 0.89124868025727 
C16   C     0.69844603012271 0.88315409008891 0.99969956995136 
C17   C     0.87032507959420 0.69627102983270 0.95723623010909 
C18   C     0.83331161956757 0.85580251951983 0.99400667010866 
