data_stdin
_audit_creation_method 'critic2'
_audit_creation_date 2023-8-11
_chemical_formula_sum 'C18 H12'
_cell_formula_units_Z 8
_cell_length_a        10.4656288702
_cell_length_b        10.4655681746
_cell_length_c        21.9333576500
_cell_angle_alpha        89.9982
_cell_angle_beta        89.9996
_cell_angle_gamma        90.0000
_cell_volume          2402.333299
_space_group_crystal_system tetragonal
_space_group_IT_number 86
_space_group_name_H-M_alt 'P4_2/n'
_space_group_name_Hall 'P 4n -1n'
loop_
_symmetry_equiv_pos_site_id
_symmetry_equiv_pos_as_xyz
 1 'x,y,z'
 2 '-y,-1/2+x,-1/2+z'
 3 '-1/2-x,-1/2-y,z'
 4 '-1/2+y,-x,-1/2+z'
 5 '-x,-y,-z'
 6 'y,-1/2-x,-1/2-z'
 7 '-1/2+x,-1/2+y,-z'
 8 '-1/2-y,x,-1/2-z'
loop_
_atom_site_label
_atom_site_type_symbol
_atom_site_fract_x
_atom_site_fract_y
_atom_site_fract_z
H1    H     0.43653066005236 0.87244123036130 0.98119474004928 
H2    H     0.48358242995706 0.92989441013075 0.08668864979633 
H3    H     0.47075287045529 0.76594731955138 0.16928022003409 
H4    H     0.38938217958294 0.54894928995070 0.14458513020537 
H5    H     0.29577553020618 0.40021990961299 0.07337367982584 
H6    H     0.57272868027024 0.80749996014890 0.92882813993452 
H7    H     0.21941827972909 0.34989012030773 0.96880090000824 
H8    H     0.20443687000524 0.39717047965137 0.86315533020635 
H9    H     0.26050781994655 0.52863271013634 0.77316647013945 
H10   H     0.65095178968187 0.91306555976341 0.83684101979638 
H11   H     0.38569696028300 0.69844853017785 0.72772787981151 
H12   H     0.55444246986568 0.86642482025263 0.73582633009503 
C1    C     0.43425492015120 0.79824335993601 0.01571339020153 
C2    C     0.39789661005929 0.67242490004619 0.99925856019925 
C3    C     0.37586045966882 0.63128313977635 0.93701682020023 
C4    C     0.45835485994983 0.83163939023410 0.07563032996251 
C5    C     0.37351632011822 0.58466066999024 0.04807119997636 
C6    C     0.42598863045865 0.69577183999399 0.88363671021578 
C7    C     0.30363691032543 0.51809923960458 0.92779264991222 
C8    C     0.44779409002938 0.74026671040059 0.12243372000418 
C9    C     0.40337226983485 0.61949969034017 0.10869904997179 
C10   C     0.38077547001630 0.65937437014772 0.82435690015536 
C11   C     0.31306851976797 0.46555261038380 0.03560896996791 
C12   C     0.52658960999257 0.78674219995343 0.88565362003956 
C13   C     0.27313897976493 0.43686748047626 0.97800157001971 
C14   C     0.26307642035464 0.48259306975777 0.86804453019911 
C15   C     0.29561452993520 0.55388190975293 0.81831800989194 
C16   C     0.57215084995006 0.84551784990272 0.83352844017063 
C17   C     0.42531071001666 0.72482038032127 0.77197115987710 
C18   C     0.51866604017710 0.81760056025106 0.77618910016633 
