data_stdin
_audit_creation_method 'critic2'
_audit_creation_date 2023-8-11
_chemical_formula_sum 'C18 H12'
_cell_formula_units_Z 4
_cell_length_a         8.0118472791
_cell_length_b        13.5871010100
_cell_length_c        12.2304961254
_cell_angle_alpha        90.0002
_cell_angle_beta        63.6527
_cell_angle_gamma        89.9997
_cell_volume          1193.080798
_space_group_crystal_system monoclinic
_space_group_IT_number 14
_space_group_name_H-M_alt 'P2_1/c'
_space_group_name_Hall '-P 2ybc'
loop_
_symmetry_equiv_pos_site_id
_symmetry_equiv_pos_as_xyz
 1 'x,y,z'
 2 '-x,-y,-z'
 3 '-x,-1/2+y,-1/2-z'
 4 'x,-1/2-y,-1/2+z'
loop_
_atom_site_label
_atom_site_type_symbol
_atom_site_fract_x
_atom_site_fract_y
_atom_site_fract_z
H1    H     0.81081551953229 0.66597010965310 0.29193593038404 
H2    H     0.94409763014246 0.76268668972790 0.40187097969186 
H3    H     0.74666583943947 0.81751203036271 0.61589389011378 
H4    H     0.40801652026818 0.78101706991536 0.71254570963562 
H5    H     0.13470687989845 0.72335819020401 0.69766054971118 
H6    H     0.80698741939766 0.52325350963948 0.29613665024318 
H7    H     0.98812676036797 0.64596198978733 0.57760707015235 
H8    H     0.00957469050362 0.56194440001663 0.40153541000326 
H9    H     0.19198771979432 0.47470458013081 0.20537969001005 
H10   H     0.97686851002830 0.42828187971764 0.11005224011271 
H11   H     0.48075366032120 0.40357102964771 0.05946312990060 
H12   H     0.81693257994015 0.36894618990095 0.98733299954156 
C1    C     0.72241472988410 0.68576201021797 0.38614498985217 
C2    C     0.53218467023294 0.65753665996184 0.44142325017595 
C3    C     0.44697584018275 0.59626361024229 0.38277418034502 
C4    C     0.79749201914049 0.74236022979965 0.44743131036993 
C5    C     0.41688736015352 0.69896208966413 0.55898277998214 
C6    C     0.54930853005734 0.53278928990388 0.27898297045677 
C7    C     0.24994157051118 0.59960529967700 0.42973794991820 
C8    C     0.68644893034956 0.77386736964571 0.56774593955621 
C9    C     0.49810913939744 0.75335825983943 0.62167775040587 
C10   C     0.45541006023671 0.49148709981133 0.21332460986948 
C11   C     0.21938507998719 0.69064866991469 0.60871788974623 
C12   C     0.73736535962209 0.50427609989630 0.24059767004320 
C13   C     0.13890649990244 0.64740524017016 0.54319713007973 
C14   C     0.16028217975038 0.55509924025014 0.36408265975877 
C15   C     0.26025825989653 0.50628482984732 0.25696966023624 
C16   C     0.83196040004754 0.44770707010031 0.13726357038752 
C17   C     0.55509155016880 0.43347473014467 0.10805086036200 
C18   C     0.74204459042665 0.41368749026214 0.06837344996376 
