data_stdin
_audit_creation_method 'critic2'
_audit_creation_date 2023-8-11
_chemical_formula_sum 'C18 H12'
_cell_formula_units_Z 4
_cell_length_a         9.8038639804
_cell_length_b        29.4035787988
_cell_length_c         3.9811394012
_cell_angle_alpha        90.0029
_cell_angle_beta        89.9883
_cell_angle_gamma        89.9983
_cell_volume          1147.637803
_space_group_crystal_system monoclinic
_space_group_IT_number 7
_space_group_name_H-M_alt 'Pc'
_space_group_name_Hall 'P -2yc'
loop_
_symmetry_equiv_pos_site_id
_symmetry_equiv_pos_as_xyz
 1 'x,y,z'
 2 '-1/2+x,-1/2-y,z'
loop_
_atom_site_label
_atom_site_type_symbol
_atom_site_fract_x
_atom_site_fract_y
_atom_site_fract_z
H1    H     0.44812790964407 0.66557812995887 0.00240132056516 
H2    H     0.55187402957795 0.33443467000575 0.50176866914263 
H3    H     0.67640275966820 0.64399558999504 0.81936266913148 
H4    H     0.32361071962699 0.35598632986262 0.31862074059915 
H5    H     0.71354323035813 0.57218712984717 0.49437608116110 
H6    H     0.28645625002621 0.42781364006288 0.99401722052110 
H7    H     0.51729596034221 0.52107302998408 0.38689263914190 
H8    H     0.48263465011428 0.47897435983143 0.88695597064143 
H9    H     0.28172139992374 0.50068726001378 0.46158001904721 
H10   H     0.71815787976865 0.49939057996104 0.96175674878170 
H11   H     0.32357538003646 0.70397916999337 0.75269189981502 
H12   H     0.67655207039516 0.29607509000260 0.25209113977444 
H13   H     0.05505962998372 0.51637224986321 0.71797243946424 
H14   H     0.94481067040893 0.48372481991926 0.21799551952823 
H15   H     0.90350934964994 0.56354710999267 0.02548170095228 
H16   H     0.09637715979806 0.43655699002870 0.52538311051091 
H17   H     0.84763762044951 0.63612335005667 0.31149897104516 
H18   H     0.15229832016949 0.36397425994896 0.81106841108067 
H19   H     0.24868209031571 0.77728577994783 0.96559034066756 
H20   H     0.75152856034058 0.22276995007559 0.46463413060719 
H21   H     0.90258035003016 0.71438369994415 0.43707131983560 
H22   H     0.09750130008674 0.28569762002197 0.93617466921768 
H23   H     0.04329096041097 0.78318713995527 0.33836078944093 
H24   H     0.95691396010667 0.21687447006845 0.83719014108529 
C1    C     0.45990753994205 0.63526408014665 0.85037554957552 
C2    C     0.54008783019728 0.36475941987048 0.34990893978162 
C3    C     0.34404867007699 0.60803089985284 0.77898049992226 
C4    C     0.65592365037695 0.39202041005459 0.27873040082062 
C5    C     0.20636946005162 0.61960466984367 0.88144039941633 
C6    C     0.79360387981188 0.38046305992330 0.38117643071959 
C7    C     0.58983308955233 0.62266012986805 0.75167315938748 
C8    C     0.41017080970045 0.37734524004230 0.25116360905339 
C9    C     0.36887921969728 0.56498988016921 0.62040931948072 
C10   C     0.63106854026592 0.43506700009340 0.12035333029250 
C11   C     0.16369789969439 0.66447073013792 0.99100218056480 
C12   C     0.83631218953302 0.33559689003429 0.49052384045149 
C13   C     0.10686371998269 0.58453302990110 0.87809665937270 
C14   C     0.89306220962885 0.41555017999063 0.37794933971212 
C15   C     0.61139204987571 0.58187148007009 0.57475351007819 
C16   C     0.38859903960917 0.41814411014674 0.07443688108140 
C17   C     0.50213943982129 0.55347455995732 0.51362118048699 
C18   C     0.49782098962074 0.44656723007384 0.01354047071585 
C19   C     0.03561620030205 0.66934538996882 0.16186938904475 
C20   C     0.96439932026514 0.33073275990987 0.66134045938579 
C21   C     0.26087831046406 0.53280563998425 0.58839054069793 
C22   C     0.73903182004755 0.46727042985549 0.08845759016042 
C23   C     0.23586118016955 0.70506202012358 0.91861767084937 
C24   C     0.76424059005843 0.29499808995992 0.41799962876450 
C25   C     0.13622371962942 0.54168880986169 0.72621036967273 
C26   C     0.86367432001764 0.45839806012676 0.22620368043268 
C27   C     0.97633905027611 0.59155657989943 0.02825976894505 
C28   C     0.02357289028871 0.40854008006489 0.52804888876119 
C29   C     0.94459637003367 0.63166499991377 0.18193555071710 
C30   C     0.05535335977691 0.36842768011514 0.68155016901439 
C31   C     0.19163686049295 0.74692199991088 0.03396825889104 
C32   C     0.80852131026958 0.25313761989517 0.53314431890429 
C33   C     0.99667207045271 0.71211673006182 0.29273067064446 
C34   C     0.00341102018216 0.28795919999492 0.79192956949468 
C35   C     0.07411343981638 0.75049714999415 0.23460918929665 
C36   C     0.92603824038986 0.24956828013718 0.73366528975015 
