data_stdin
_audit_creation_method 'critic2'
_audit_creation_date 2023-8-11
_chemical_formula_sum 'C18 H12'
_cell_formula_units_Z 4
_cell_length_a         8.0257594264
_cell_length_b        12.1485755300
_cell_length_c        12.5289382058
_cell_angle_alpha        90.0000
_cell_angle_beta        76.2620
_cell_angle_gamma        90.0000
_cell_volume          1186.643176
_space_group_crystal_system monoclinic
_space_group_IT_number 14
_space_group_name_H-M_alt 'P2_1/c'
_space_group_name_Hall '-P 2ybc'
loop_
_symmetry_equiv_pos_site_id
_symmetry_equiv_pos_as_xyz
 1 'x,y,z'
 2 '-x,-y,-z'
 3 '-x,-1/2+y,-1/2-z'
 4 'x,-1/2-y,-1/2+z'
loop_
_atom_site_label
_atom_site_type_symbol
_atom_site_fract_x
_atom_site_fract_y
_atom_site_fract_z
H1    H     0.13025424028689 0.33718246961599 0.78901509964286 
H2    H     0.38166357044582 0.39519662973510 0.64789738024247 
H3    H     0.36168970019262 0.55269569979466 0.52282240969172 
H4    H     0.07987321045040 0.63886726039144 0.53150173997427 
H5    H     0.77220632035284 0.64559107002454 0.60453253967152 
H6    H     0.07536765975973 0.41222031982112 0.93741742040321 
H7    H     0.50911230029688 0.56609854967596 0.72525823991016 
H8    H     0.37123892970422 0.43920913993550 0.86479190969933 
H9    H     0.37960674958974 0.31410151022332 0.02043529990426 
H10   H     0.06631505998949 0.32676580027895 0.11551863965496 
H11   H     0.53260975020888 0.25141505039219 0.15445313987113 
H12   H     0.79534525051586 0.24335668019461 0.22481556968159 
C1    C     0.11966525025959 0.40791669000230 0.73792723009560 
C2    C     0.95950151009351 0.46205217991935 0.75124981975962 
C3    C     0.80802101933116 0.43311118997709 0.83524252032403 
C4    C     0.26099198988150 0.43925219034125 0.65680874015564 
C5    C     0.94535512973208 0.54300907009285 0.67053184033773 
C6    C     0.81092707961362 0.37674323033289 0.93673122985318 
C7    C     0.64594134990874 0.46344803027230 0.81742313012639 
C8    C     0.24979046994785 0.52676646024904 0.58526171002761 
C9    C     0.09304424004133 0.57619291026559 0.59100283974676 
C10   C     0.65381533019017 0.33325373013365 0.00291763960999 
C11   C     0.78047558039442 0.58415491983042 0.66645879961873 
C12   C     0.95821921054058 0.37199281996191 0.98083787021544 
C13   C     0.63568862048628 0.54069505040712 0.73319327021475 
C14   C     0.49239369031343 0.41750414959605 0.88409975029875 
C15   C     0.49696567988323 0.34973499987976 0.97031845974982 
C16   C     0.95269559994684 0.32531368035275 0.08234179978505 
C17   C     0.65345657002550 0.28272553966492 0.10477792966146 
C18   C     0.79955977989495 0.27905014988009 0.14471810030356 
