data_stdin
_audit_creation_method 'critic2'
_audit_creation_date 2023-8-11
_chemical_formula_sum 'C18 H12'
_cell_formula_units_Z 8
_cell_length_a        20.3629741319
_cell_length_b         8.1526105358
_cell_length_c        19.0443938423
_cell_angle_alpha        89.9987
_cell_angle_beta        50.1863
_cell_angle_gamma        89.9892
_cell_volume          2428.509802
_space_group_crystal_system monoclinic
_space_group_IT_number 15
_space_group_name_H-M_alt 'C2/c'
_space_group_name_Hall '-C 2yc'
loop_
_symmetry_equiv_pos_site_id
_symmetry_equiv_pos_as_xyz
 1 'x,y,z'
 2 '-1/2-x,-1/2-y,-z'
 3 '-1/2-x,-1/2+y,-1/2-z'
 4 '-1/2+x,-1/2-y,-1/2+z'
 5 '-1/2+x,-1/2+y,z'
 6 '-x,-y,-z'
 7 '-x,y,-1/2-z'
 8 'x,-y,-1/2+z'
loop_
_atom_site_label
_atom_site_type_symbol
_atom_site_fract_x
_atom_site_fract_y
_atom_site_fract_z
H1    H     0.05145189817663 0.61904210068914 0.39746569884182 
H2    H     0.06644312645505 0.42756370774354 0.29019682822991 
H3    H     0.15059260452348 0.50385977174846 0.12563055494463 
H4    H     0.20484128756771 0.78985762604985 0.07696492121672 
H5    H     0.22109329030543 0.06414766436384 0.11020430714662 
H6    H     0.12950625582484 0.62224298163120 0.42014813333530 
H7    H     0.19955739923260 0.26874861620440 0.21934430535683 
H8    H     0.14865010584454 0.34441990737215 0.36636492869412 
H9    H     0.09306853726936 0.27378725792830 0.52306868199177 
H10   H     0.09343613327767 0.55846786916951 0.56585590943633 
H11   H     0.05920031731723 0.07163018931027 0.63371219267364 
H12   H     0.05589940657823 0.78269859336649 0.67628389126288 
C1    C     0.08966382381339 0.65540811971323 0.32640771057199 
C2    C     0.12783971334204 0.81343798655840 0.29878953906394 
C3    C     0.12687447699102 0.92798863070733 0.35780153299254 
C4    C     0.09665294633888 0.54750546197812 0.26586664998289 
C5    C     0.16512837836082 0.86349124600396 0.20778834952901 
C6    C     0.10790065959157 0.88428950950406 0.44300957782218 
C7    C     0.14705239954670 0.09460961137831 0.32957901132153 
C8    C     0.14196384529550 0.59193354169834 0.17387801543037 
C9    C     0.17334704183166 0.74938758146268 0.14654154552345 
C10   C     0.09321629744422 0.01213049244849 0.50351066054447 
C11   C     0.19270844000547 0.02855036494410 0.17960712328522 
C12   C     0.10922182005697 0.72126840590946 0.46810239430785 
C13   C     0.18097717202013 0.14127059998664 0.23974404660033 
C14   C     0.13420951298022 0.21800875560612 0.39039270486421 
C15   C     0.10465064368156 0.17914319836432 0.47590683530212 
C16   C     0.09090358189689 0.68544359353719 0.54997003084572 
C17   C     0.07218151526595 0.97209222694554 0.58817143690259 
C18   C     0.07021060996101 0.81112709305727 0.61188553047881 
