data_stdin
_audit_creation_method 'critic2'
_audit_creation_date 2023-8-11
_chemical_formula_sum 'C18 H12'
_cell_formula_units_Z 4
_cell_length_a        20.2274016409
_cell_length_b         8.2420512801
_cell_length_c         7.2477945272
_cell_angle_alpha        89.9999
_cell_angle_beta        83.9489
_cell_angle_gamma        90.0004
_cell_volume          1201.585735
_space_group_crystal_system monoclinic
_space_group_IT_number 14
_space_group_name_H-M_alt 'P2_1/c'
_space_group_name_Hall '-P 2ybc'
loop_
_symmetry_equiv_pos_site_id
_symmetry_equiv_pos_as_xyz
 1 'x,y,z'
 2 '-x,-y,-z'
 3 '-x,-1/2+y,-1/2-z'
 4 'x,-1/2-y,-1/2+z'
loop_
_atom_site_label
_atom_site_type_symbol
_atom_site_fract_x
_atom_site_fract_y
_atom_site_fract_z
H1    H     0.24595021993470 0.68854336057014 0.01274113994143 
H2    H     0.15180746999770 0.86256555963109 0.95987452031636 
H3    H     0.03566082986414 0.77000021048518 0.04832297955106 
H4    H     0.01554669975284 0.48890007987194 0.16806693027578 
H5    H     0.05652167006866 0.22117463040936 0.23230190984723 
H6    H     0.28761734995615 0.68365889994643 0.24951279007541 
H7    H     0.15041919022135 0.02809684023919 0.22868248955984 
H8    H     0.26662912015005 0.96891405962109 0.17663953000572 
H9    H     0.38452264010996 0.05700738982369 0.13722679005118 
H10   H     0.40313939981617 0.76284815016641 0.26729678997523 
H11   H     0.46626873004762 0.27186650996601 0.14760926060772 
H12   H     0.49482214999308 0.55909030974518 0.20109160957125 
C1    C     0.19589375986611 0.64645111952094 0.05650397960112 
C2    C     0.18664223991358 0.48881919977832 0.13362222950466 
C3    C     0.24082150996406 0.38063761052236 0.16413429049661 
C4    C     0.14279171991661 0.74466735027007 0.02504115975126 
C5    C     0.11960178986289 0.43025221034407 0.16515739959070 
C6    C     0.30858738002253 0.43257624957326 0.17657238998195 
C7    C     0.22663253007916 0.21243396038185 0.18100576005562 
C8    C     0.07711970994858 0.69114524031938 0.07232086053193 
C9    C     0.06602150014783 0.53574003020768 0.14011399055772 
C10   C     0.36058313002968 0.31355521020777 0.16203561015125 
C11   C     0.10769253000283 0.26346843971820 0.20791283974890 
C12   C     0.32642106974762 0.59385724040612 0.21825022055561 
C13   C     0.15945181005396 0.15712151943189 0.20602320066862 
C14   C     0.27952569996670 0.09720770976427 0.17220596952355 
C15   C     0.34436645981962 0.14563413035923 0.15310657019898 
C16   C     0.39180194988972 0.63853846941809 0.23028737029186 
C17   C     0.42727916980634 0.36337848045426 0.16675545015221 
C18   C     0.44313486980411 0.52331412975542 0.19846619010478 
