data_stdin
_audit_creation_method 'critic2'
_audit_creation_date 2023-8-11
_chemical_formula_sum 'C18 H12'
_cell_formula_units_Z 8
_cell_length_a        27.0673549125
_cell_length_b         5.4890058000
_cell_length_c        16.1586020655
_cell_angle_alpha        90.0076
_cell_angle_beta        79.6158
_cell_angle_gamma        90.0237
_cell_volume          2361.408353
_space_group_crystal_system triclinic
_space_group_IT_number 2
_space_group_name_H-M_alt 'P-1'
_space_group_name_Hall '-P 1'
loop_
_symmetry_equiv_pos_site_id
_symmetry_equiv_pos_as_xyz
 1 'x,y,z'
 2 '-x,-y,-z'
 3 '-1/2+x,-1/2+y,z'
 4 '-1/2-x,-1/2-y,-z'
loop_
_atom_site_label
_atom_site_type_symbol
_atom_site_fract_x
_atom_site_fract_y
_atom_site_fract_z
H1    H     0.14538848200466 0.77071490542433 0.52512860390089 
H2    H     0.85459420408551 0.77093970644135 0.97487057993335 
H3    H     0.11370582854045 0.43168204897821 0.61820425968697 
H4    H     0.88624647063727 0.43193577147167 0.88179275135995 
H5    H     0.05408114925552 0.12884774436168 0.57542146846773 
H6    H     0.94585015917927 0.12922823078204 0.92457313094034 
H7    H     0.02143591606004 0.19531088040676 0.44329707914104 
H8    H     0.97850913883829 0.19583920298591 0.05668898254467 
H9    H     0.01580620526412 0.43546367849999 0.32118736133254 
H10   H     0.98416834240535 0.43607887051604 0.17878379710824 
H11   H     0.20742449646429 0.74413984922776 0.44428533381186 
H12   H     0.79255829502739 0.74426616511798 0.05570926027377 
H13   H     0.04287421332088 0.79099484210637 0.22900678950867 
H14   H     0.95712885181741 0.79157131306491 0.27097575724078 
H15   H     0.09426607429125 0.13688226868633 0.19117683866769 
H16   H     0.90573995236789 0.13726013914114 0.30884777058816 
H17   H     0.16292885819242 0.41706118433608 0.21363209131434 
H18   H     0.83708917215398 0.41725942702525 0.28641395978972 
H19   H     0.28021860780697 0.00204564520173 0.45155547386607 
H20   H     0.71978590094384 0.00202618291688 0.04843823758816 
H21   H     0.23186510475313 0.51249084346537 0.28138452617400 
H22   H     0.76815869657373 0.51252952849687 0.21866654169255 
H23   H     0.29198240946387 0.39687751605959 0.37387730038582 
H24   H     0.70804062109080 0.39680279203529 0.12615350271295 
C1    C     0.12089997549643 0.63720035011748 0.50373105728119 
C2    C     0.87907261704051 0.63748367421971 0.99626739921786 
C3    C     0.10706737120079 0.66592515265085 0.42360173347963 
C4    C     0.89290976583012 0.66626934850145 0.07639611641239 
C5    C     0.12780465531236 0.85067635992456 0.36283380163550 
C6    C     0.87218496563024 0.85098154563018 0.13717207195883 
C7    C     0.10223246786283 0.44836319041288 0.55720530849659 
C8    C     0.89772306064070 0.44865975608001 0.94279125336822 
C9    C     0.06799707840952 0.50915711427077 0.40520057390353 
C10   C     0.93197116638274 0.50959804803702 0.09479031431668 
C11   C     0.17311500170634 0.98912938445382 0.36593821129132 
C12   C     0.82688178998598 0.98932194378954 0.13407670099578 
C13   C     0.10189623080242 0.90005031647475 0.29555302671452 
C14   C     0.89809941235122 0.90043051062321 0.20445208522171 
C15   C     0.06789455847580 0.28011418678766 0.53409810524107 
C16   C     0.93204966767181 0.28049071316167 0.96589485039340 
C17   C     0.05019286096194 0.31504880292328 0.46009997219837 
C18   C     0.94975843659087 0.31550056603365 0.03988992867456 
C19   C     0.18362716286352 0.20150363671699 0.31402159394283 
C20   C     0.81638078134913 0.20166572818186 0.18600723093281 
C21   C     0.04590170926316 0.55504501396002 0.33312072606264 
C22   C     0.95407730595322 0.55557902946601 0.16686201658106 
C23   C     0.21036520060903 0.91937742552377 0.41289788568190 
C24   C     0.78962904176748 0.91949357617985 0.08710730590926 
C25   C     0.06102254534367 0.74965915966250 0.28228654230225 
C26   C     0.93897070680644 0.75016839404720 0.21770276777589 
C27   C     0.11583370837165 0.10228604308030 0.24081211861083 
C28   C     0.88417075907909 0.10261770929852 0.25920880431500 
C29   C     0.15369913510697 0.25550763897833 0.25241855513353 
C30   C     0.84631116432914 0.25573706038939 0.24761532357389 
C31   C     0.25227298796094 0.06181150486954 0.41526151993682 
C32   C     0.74773180395754 0.06183949250955 0.08474573500982 
C33   C     0.22577875335270 0.34885647818462 0.31983735051345 
C34   C     0.77423791265131 0.34891992017487 0.18019986557625 
C35   C     0.25939420956524 0.28317495446774 0.37075047693291 
C36   C     0.74062178002334 0.28317480937029 0.12927516762932 
