data_stdin
_audit_creation_method 'critic2'
_audit_creation_date 2023-8-11
_chemical_formula_sum 'C18 H12'
_cell_formula_units_Z 16
_cell_length_a        13.5954134500
_cell_length_b        30.4409619802
_cell_length_c        11.5245395304
_cell_angle_alpha        90.0002
_cell_angle_beta        90.0000
_cell_angle_gamma        90.0000
_cell_volume          4769.516703
_space_group_crystal_system orthorhombic
_space_group_IT_number 43
_space_group_name_H-M_alt 'Fdd2'
_space_group_name_Hall 'F 2 -2d'
loop_
_symmetry_equiv_pos_site_id
_symmetry_equiv_pos_as_xyz
 1 'x,y,z'
 2 '-x,-y,z'
 3 '-1/4-x,-3/4+y,-1/4+z'
 4 '-1/4+x,-3/4-y,-1/4+z'
 5 'x,-1/2+y,-1/2+z'
 6 '-x,-1/2-y,-1/2+z'
 7 '-1/4-x,-1/4+y,-3/4+z'
 8 '-1/4+x,-1/4-y,-3/4+z'
 9 '-1/2+x,y,-1/2+z'
 10 '-1/2-x,-y,-1/2+z'
 11 '-3/4-x,-3/4+y,-3/4+z'
 12 '-3/4+x,-3/4-y,-3/4+z'
 13 '-1/2+x,-1/2+y,z'
 14 '-1/2-x,-1/2-y,z'
 15 '-3/4-x,-1/4+y,-1/4+z'
 16 '-3/4+x,-1/4-y,-1/4+z'
loop_
_atom_site_label
_atom_site_type_symbol
_atom_site_fract_x
_atom_site_fract_y
_atom_site_fract_z
H1    H     0.35623979968393 0.70911628987168 0.50067061979724 
H2    H     0.33799513969795 0.74846123011190 0.68342523002063 
H3    H     0.36702815019376 0.71032320986986 0.87266765982889 
H4    H     0.40413095992420 0.63037816006017 0.87246336030217 
H5    H     0.41840624027730 0.56173443003836 0.77302344958226 
H6    H     0.47279923965542 0.70701283016001 0.41089610002819 
H7    H     0.41878614014777 0.51859953010960 0.58966677012180 
H8    H     0.41562541984791 0.51377273002630 0.38556655000223 
H9    H     0.40984303003782 0.54791241011822 0.18996639975780 
H10   H     0.48562828013570 0.73767214989055 0.21648102024782 
H11   H     0.41832106977725 0.61152650998672 0.06881289957332 
H12   H     0.45298456998745 0.69114797986735 0.04186553040231 
C1    C     0.37278426995510 0.69196599997621 0.58071629991932 
C2    C     0.40027022036452 0.64698746003094 0.57680747003035 
C3    C     0.41471689030338 0.62229424007345 0.47036578961918 
C4    C     0.36045132024838 0.71412564984550 0.68453699976326 
C5    C     0.40606569013671 0.62454883003068 0.68611374984778 
C6    C     0.42763627034320 0.64180812991640 0.35652161992014 
C7    C     0.41586787019804 0.57571191991103 0.47800466997157 
C8    C     0.37562504034141 0.69259935985324 0.79118800006479 
C9    C     0.39686183024694 0.64828719987365 0.79117467985370 
C10   C     0.42052095011454 0.61444016998460 0.25547377008368 
C11   C     0.41544540992077 0.57796148985116 0.68890792035765 
C12   C     0.45436131008018 0.68628639006104 0.33750990038736 
C13   C     0.41653834024707 0.55437962999056 0.58825963979842 
C14   C     0.41567886968975 0.54933633989197 0.37562940028080 
C15   C     0.41327905020375 0.56802541995194 0.26808595037619 
C16   C     0.46358245976475 0.70355363988705 0.22700664976096 
C17   C     0.42674686984175 0.63317867000160 0.14335851961976 
C18   C     0.44638646997757 0.67727000995968 0.12857133974165 
