data_stdin
_audit_creation_method 'critic2'
_audit_creation_date 2023-8-11
_chemical_formula_sum 'C18 H12'
_cell_formula_units_Z 4
_cell_length_a         9.4179845518
_cell_length_b         5.0948083321
_cell_length_c        24.2861849176
_cell_angle_alpha        89.9982
_cell_angle_beta        89.9252
_cell_angle_gamma        90.0006
_cell_volume          1165.318796
_space_group_crystal_system monoclinic
_space_group_IT_number 14
_space_group_name_H-M_alt 'P2_1/c'
_space_group_name_Hall '-P 2ybc'
loop_
_symmetry_equiv_pos_site_id
_symmetry_equiv_pos_as_xyz
 1 'x,y,z'
 2 '-x,-y,-z'
 3 '-x,-1/2+y,-1/2-z'
 4 'x,-1/2-y,-1/2+z'
loop_
_atom_site_label
_atom_site_type_symbol
_atom_site_fract_x
_atom_site_fract_y
_atom_site_fract_z
H1    H     0.97211539005696 0.20480471970010 0.90214583985600 
H2    H     0.75996971995241 0.95637977060658 0.87808669012380 
H3    H     0.77720328962610 0.56227437062288 0.81616788015588 
H4    H     0.01024842030297 0.44194525955912 0.77642832995193 
H5    H     0.25701049964934 0.52978272000118 0.76097045000937 
H6    H     0.08912645978550 0.13572114989576 0.96742419990668 
H7    H     0.46922403946963 0.81315730060370 0.77490137005898 
H8    H     0.58686421998144 0.16978824917175 0.81859607997988 
H9    H     0.59062119957177 0.54030252073136 0.88491509982358 
H10   H     0.11167755954917 0.46690009030559 0.03909290005654 
H11   H     0.48088834951504 0.78428519994643 0.95880099019299 
H12   H     0.29913151019965 0.81617440993916 0.03252482985414 
C1    C     0.98379111000612 0.02936621984623 0.87731348982525 
C2    C     0.12042028974303 0.95699765978450 0.85781439009499 
C3    C     0.25001836012285 0.09556470086987 0.87179283983507 
C4    C     0.86288780994937 0.89135760005151 0.86274479990082 
C5    C     0.12628174965152 0.74667820973035 0.81855933994926 
C6    C     0.26341778039843 0.27854499057383 0.91724464006990 
C7    C     0.37179494039624 0.05080280930598 0.83850833014541 
C8    C     0.87187334977449 0.67236403049143 0.82754849991175 
C9    C     0.00193260998846 0.60379857084051 0.80549755982464 
C10   C     0.38350767011089 0.45135945913575 0.91897761002145 
C11   C     0.25542068030255 0.69227426064862 0.79014537981865 
C12   C     0.16997186048342 0.28611642924476 0.96301521010073 
C13   C     0.37195658967567 0.84681990010179 0.79822865981502 
C14   C     0.49582386014364 0.20873987045618 0.84508793996334 
C15   C     0.49857720965736 0.41176600034350 0.88178123012149 
C16   C     0.18397265979891 0.47259305915328 0.00411906017278 
C17   C     0.39132514986617 0.64898067912382 0.95974876011237 
C18   C     0.29126168004417 0.66426735007155 0.00118773007565 
