data_stdin
_audit_creation_method 'critic2'
_audit_creation_date 2023-8-11
_chemical_formula_sum 'C18 H12'
_cell_formula_units_Z 4
_cell_length_a         4.7868951485
_cell_length_b         7.3674433528
_cell_length_c        34.9844770113
_cell_angle_alpha        90.0000
_cell_angle_beta       109.0817
_cell_angle_gamma        90.0007
_cell_volume          1166.010369
_space_group_crystal_system monoclinic
_space_group_IT_number 14
_space_group_name_H-M_alt 'P2_1/c'
_space_group_name_Hall '-P 2ybc'
loop_
_symmetry_equiv_pos_site_id
_symmetry_equiv_pos_as_xyz
 1 'x,y,z'
 2 '-x,-y,-z'
 3 '-x,-1/2+y,-1/2-z'
 4 'x,-1/2-y,-1/2+z'
loop_
_atom_site_label
_atom_site_type_symbol
_atom_site_fract_x
_atom_site_fract_y
_atom_site_fract_z
H1    H     0.38495550962804 0.02393051950638 0.14798970009897 
H2    H     0.64609329933347 0.23480788932271 0.20085508989104 
H3    H     0.15665637028351 0.16876982981540 0.24600679007869 
H4    H     0.39758458060847 0.87834752982919 0.23703348013541 
H5    H     0.38662787017524 0.59153761065881 0.20451224991947 
H6    H     0.34023180993506 0.03582291047683 0.09381620995944 
H7    H     0.11359376078229 0.35888529968561 0.15516953009295 
H8    H     0.69636781074275 0.25840897986745 0.10318137000807 
H9    H     0.19574254910251 0.30736766062212 0.05320710986452 
H10   H     0.86397207970884 0.07861373059620 0.04165835008968 
H11   H     0.78997890070312 0.50386519985666 0.02028392990941 
H12   H     0.56932437959898 0.81198081999954 0.00604065013123 
C1    C     0.61342927963314 0.99512798963303 0.16513936996259 
C2    C     0.74755371944278 0.83345845027137 0.15743134998029 
C3    C     0.60528698006062 0.70568349033108 0.12526405004999 
C4    C     0.75850231047212 0.11288988043472 0.19603265992673 
C5    C     0.03354659002694 0.79022456013038 0.18563792995639 
C6    C     0.33536091118696 0.74132529967042 0.09192818006340 
C7    C     0.73600970970598 0.53119951047995 0.12715181000543 
C8    C     0.04605209080023 0.07462414041701 0.22180682008558 
C9    C     0.17804640074562 0.91389672943731 0.21682617007934 
C10   C     0.18152368063628 0.59237198066944 0.06765362987133 
C11   C     0.16723731063583 0.61962362957332 0.18335927998820 
C12   C     0.21539320008188 0.91666215004694 0.08002039994743 
C13   C     0.01832961996978 0.49245530967694 0.15598350995785 
C14   C     0.58705226951384 0.38989916027497 0.10036276987422 
C15   C     0.31289912888108 0.41675346052503 0.07287983989523 
C16   C     0.94715896909048 0.94150743978605 0.04977786993691 
C17   C     0.90457684921555 0.62075640932498 0.03739662988210 
C18   C     0.78380654030634 0.79205669011234 0.02907152010502 
