data_stdin
_audit_creation_method 'critic2'
_audit_creation_date 2023-8-11
_chemical_formula_sum 'C18 H12'
_cell_formula_units_Z 8
_cell_length_a        12.0198170570
_cell_length_b         8.5748573902
_cell_length_c        23.6064912887
_cell_angle_alpha        89.9982
_cell_angle_beta        90.0000
_cell_angle_gamma        89.9992
_cell_volume          2433.078968
_space_group_crystal_system orthorhombic
_space_group_IT_number 61
_space_group_name_H-M_alt 'Pbca'
_space_group_name_Hall '-P 2ac 2ab'
loop_
_symmetry_equiv_pos_site_id
_symmetry_equiv_pos_as_xyz
 1 'x,y,z'
 2 '-x,-y,-z'
 3 '-1/2+x,-1/2-y,-z'
 4 '-1/2-x,-1/2+y,z'
 5 '-x,-1/2+y,-1/2-z'
 6 'x,-1/2-y,-1/2+z'
 7 '-1/2-x,-y,-1/2+z'
 8 '-1/2+x,y,-1/2-z'
loop_
_atom_site_label
_atom_site_type_symbol
_atom_site_fract_x
_atom_site_fract_y
_atom_site_fract_z
H1    H     0.54672118020257 0.12493228025752 0.84565939005718 
H2    H     0.69361238988892 0.23039977027825 0.90572140018845 
H3    H     0.75404674969117 0.09116375003670 0.99238622990455 
H4    H     0.65618678992334 0.84714262990173 0.02134859990163 
H5    H     0.51225776015228 0.65577100970679 0.00741970007266 
H6    H     0.57697305978729 0.98640715005169 0.78194664987632 
H7    H     0.34681300006754 0.56466780971425 0.95459096983531 
H8    H     0.21811507037789 0.58527241042866 0.87769017992375 
H9    H     0.16718327028141 0.68530037995903 0.78279265979134 
H10   H     0.53769387976641 0.04287750035628 0.68344853013350 
H11   H     0.21898916033404 0.81867990008061 0.69717099994851 
H12   H     0.35428227997838 0.97370737006673 0.64043402002316 
C1    C     0.57400296000756 0.05703330965824 0.88189473980362 
C2    C     0.52191024974019 0.91256378009751 0.89462539984555 
C3    C     0.43623499975835 0.84191482056614 0.85968066018063 
C4    C     0.65614901970508 0.11864486026880 0.91632325986741 
C5    C     0.55095453975836 0.84010125972307 0.94745600983002 
C6    C     0.41709279965063 0.87865151052466 0.80046969985375 
C7    C     0.36788808000209 0.72562556023605 0.88483798992744 
C8    C     0.68982178998010 0.04016615003869 0.96573529010007 
C9    C     0.63629202006202 0.90457941997575 0.98142366988503 
C10   C     0.31731342996291 0.82353000044603 0.77359678013407 
C11   C     0.48935357985455 0.70890414012571 0.96714289014109 
C12   C     0.49575096009271 0.95554351960357 0.76541737982700 
C13   C     0.39804366016868 0.65880527998771 0.93804036002235 
C14   C     0.27033832989270 0.67126034021299 0.85648540983764 
C15   C     0.24295383002979 0.72423367996175 0.80373766020675 
C16   C     0.47410980014179 0.98684240986891 0.70900967999408 
C17   C     0.29579408004173 0.86116539034749 0.71622389006704 
C18   C     0.37178419979671 0.94452098055760 0.68444583978874 
