data_stdin
_audit_creation_method 'critic2'
_audit_creation_date 2023-8-11
_chemical_formula_sum 'C18 H12'
_cell_formula_units_Z 8
_cell_length_a        19.1872375982
_cell_length_b         4.9826447899
_cell_length_c        25.8165882649
_cell_angle_alpha        90.0044
_cell_angle_beta        86.0652
_cell_angle_gamma        90.0030
_cell_volume          2462.330269
_space_group_crystal_system monoclinic
_space_group_IT_number 15
_space_group_name_H-M_alt 'C2/c'
_space_group_name_Hall '-C 2yc'
loop_
_symmetry_equiv_pos_site_id
_symmetry_equiv_pos_as_xyz
 1 'x,y,z'
 2 '-x,-y,-z'
 3 '-x,y,-1/2-z'
 4 'x,-y,-1/2+z'
 5 '-1/2+x,-1/2+y,z'
 6 '-1/2-x,-1/2-y,-z'
 7 '-1/2-x,-1/2+y,-1/2-z'
 8 '-1/2+x,-1/2-y,-1/2+z'
loop_
_atom_site_label
_atom_site_type_symbol
_atom_site_fract_x
_atom_site_fract_y
_atom_site_fract_z
H1    H     0.02018734982011 0.59012522931634 0.67330121991738 
H2    H     0.13261248020510 0.81678350951583 0.67500694993823 
H3    H     0.15875064985741 0.22312565965399 0.62017108990835 
H4    H     0.07131287998543 0.37909943988897 0.56014734009384 
H5    H     0.96300108023498 0.31956583023732 0.51954543990624 
H6    H     0.93931273987655 0.67414877945321 0.72021068982784 
H7    H     0.85641051994280 0.05386104908551 0.50778090001398 
H8    H     0.77925394993565 0.69243547960760 0.53159483997004 
H9    H     0.74088750995654 0.31708486980051 0.58983646987518 
H10   H     0.89222286978105 0.33339139032813 0.78107861986147 
H11   H     0.74974275011558 0.07061506918527 0.67016691998102 
H12   H     0.79851592023009 0.01872317899852 0.75576515995472 
C1    C     0.02879955005710 0.77213677992979 0.65076070005369 
C2    C     0.97589815978903 0.86504845073374 0.61937234000785 
C3    C     0.90795998985084 0.73888398003538 0.61760653005791 
C4    C     0.09320489001867 0.89698205941427 0.65080750986174 
C5    C     0.99416295995686 0.08150647910944 0.58435759002589 
C6    C     0.87818893016226 0.55412221065346 0.65648858005843 
C7    C     0.86825355006895 0.79826231090632 0.57456707981492 
C8    C     0.10831810005635 0.12344939057116 0.61940263990588 
C9    C     0.05959583996423 0.21089499990441 0.58625338016818 
C10   C     0.81918319981815 0.39359147927493 0.64481187018759 
C11   C     0.94832751981031 0.15426300027984 0.54560948005949 
C12   C     0.90106054985181 0.53267790917294 0.70741775011701 
C13   C     0.88919271013448 0.00908244066069 0.53948950995437 
C14   C     0.80713481990756 0.64640706919433 0.56588249013311 
C15   C     0.78556263015733 0.44106359073216 0.59814723993108 
C16   C     0.87303347016787 0.34487218975986 0.74241560989142 
C17   C     0.79275229004886 0.19795662020692 0.68073910008440 
C18   C     0.81983622995383 0.16956687074157 0.72861605007608 
