data_stdin
_audit_creation_method 'critic2'
_audit_creation_date 2023-8-11
_chemical_formula_sum 'C18 H12'
_cell_formula_units_Z 4
_cell_length_a         7.9249183504
_cell_length_b        18.2862625000
_cell_length_c         9.0154263281
_cell_angle_alpha        90.0002
_cell_angle_beta        70.8302
_cell_angle_gamma        89.9976
_cell_volume          1234.044421
_space_group_crystal_system monoclinic
_space_group_IT_number 14
_space_group_name_H-M_alt 'P2_1/c'
_space_group_name_Hall '-P 2ybc'
loop_
_symmetry_equiv_pos_site_id
_symmetry_equiv_pos_as_xyz
 1 'x,y,z'
 2 '-x,-y,-z'
 3 '-x,-1/2+y,-1/2-z'
 4 'x,-1/2-y,-1/2+z'
loop_
_atom_site_label
_atom_site_type_symbol
_atom_site_fract_x
_atom_site_fract_y
_atom_site_fract_z
H1    H     0.13994289976058 0.27975783975146 0.22109523056175 
H2    H     0.93567384960518 0.18162574007676 0.21064719974037 
H3    H     0.93797420069067 0.06274391989603 0.34717071980257 
H4    H     0.17103885023408 0.04095757016018 0.47184290980543 
H5    H     0.43561256000538 0.07980047997591 0.52868477963959 
H6    H     0.06990782021968 0.35103740026299 0.39793879976252 
H7    H     0.66635575052370 0.17355436998048 0.51284429945267 
H8    H     0.78863359923594 0.29257599009012 0.44235654055047 
H9    H     0.76479790980818 0.42081762022550 0.35808114999850 
H10   H     0.03540101040218 0.48113830998357 0.35426335002467 
H11   H     0.58487598960398 0.51893984989326 0.30969417017873 
H12   H     0.29737402976518 0.56611752978937 0.29791451988786 
C1    C     0.14111054999453 0.22948666981551 0.28475942017610 
C2    C     0.26510584972239 0.22120046014233 0.36684697962608 
C3    C     0.38218006951699 0.27899882994313 0.38430372042695 
C4    C     0.02770274031070 0.17335536976567 0.27612520942014 
C5    C     0.28192307077105 0.14961385025210 0.42576635954597 
C6    C     0.35320306995053 0.35613192979821 0.36498275056669 
C7    C     0.53446188961725 0.25880205992805 0.42477572949207 
C8    C     0.03149282060491 0.10584768985379 0.35016210968334 
C9    C     0.15928931023355 0.09402879988098 0.42108487975229 
C10   C     0.49648394971836 0.40664108001733 0.34964475008937 
C11   C     0.42583976030011 0.13417271020740 0.48283477990554 
C12   C     0.18646981031368 0.38616144986702 0.37022478979651 
C13   C     0.55219700020560 0.18611230004255 0.47528134047330 
C14   C     0.67117378046598 0.31117670985202 0.41571482039834 
C15   C     0.65756104936473 0.38160336009534 0.37073003008020 
C16   C     0.16631917943012 0.45997055974811 0.34679261990883 
C17   C     0.47389697052067 0.48163647990105 0.32226975956253 
C18   C     0.31226112006379 0.50810771009501 0.31787639041122 
