data_stdin
_audit_creation_method 'critic2'
_audit_creation_date 2023-8-11
_chemical_formula_sum 'C18 H12'
_cell_formula_units_Z 4
_cell_length_a        10.6204832566
_cell_length_b        14.3153097400
_cell_length_c         8.0185514814
_cell_angle_alpha        90.0000
_cell_angle_beta       102.4763
_cell_angle_gamma        90.0000
_cell_volume          1190.316018
_space_group_crystal_system monoclinic
_space_group_IT_number 14
_space_group_name_H-M_alt 'P2_1/c'
_space_group_name_Hall '-P 2ybc'
loop_
_symmetry_equiv_pos_site_id
_symmetry_equiv_pos_as_xyz
 1 'x,y,z'
 2 '-x,-y,-z'
 3 '-x,-1/2+y,-1/2-z'
 4 'x,-1/2-y,-1/2+z'
loop_
_atom_site_label
_atom_site_type_symbol
_atom_site_fract_x
_atom_site_fract_y
_atom_site_fract_z
H1    H     0.54038834542233 0.92056657385870 0.03640483693052 
H2    H     0.76782465236909 0.89933436421701 0.03266671492611 
H3    H     0.92181966644488 0.83617311790200 0.29130568541287 
H4    H     0.84572296653168 0.81321644266065 0.55954093470859 
H5    H     0.68041409813782 0.83354875989881 0.72599784891988 
H6    H     0.41801693371372 0.80653191225907 0.98944626798577 
H7    H     0.46205485559093 0.89013784155837 0.74120308062902 
H8    H     0.25113685608527 0.94605021506982 0.60567070405028 
H9    H     0.07548768961608 0.96152786025643 0.34799775097111 
H10   H     0.23230950040239 0.79208045624972 0.75054585020498 
H11   H     0.98947876947802 0.92059197364704 0.05028068941278 
H12   H     0.01662609726266 0.85312726710104 0.77521116244088 
C1    C     0.60501464174887 0.89290045433259 0.14935195993478 
C2    C     0.55668931968424 0.87394253751110 0.29748163841676 
C3    C     0.42244015005441 0.88465304144330 0.30477360921879 
C4    C     0.73407491650037 0.88166738991462 0.14768571996757 
C5    C     0.64847316936281 0.85098016664106 0.45082599787479 
C6    C     0.31618848709982 0.87910531402805 0.15774169357266 
C7    C     0.39339827766066 0.89892027708439 0.46738372045855 
C8    C     0.82104206055646 0.84835309437590 0.29386846198114 
C9    C     0.77849935938602 0.83447952653785 0.44310184290459 
C10   C     0.18983809054333 0.90683828202076 0.17549674483352 
C11   C     0.61004221539746 0.85209095795892 0.61064424489359 
C12   C     0.32675436661698 0.83708453494340 0.00102267436987 
C13   C     0.48940811273610 0.88188828579035 0.61883077012372 
C14   C     0.26752770851358 0.92853868693468 0.47994032895492 
C15   C     0.17049710877652 0.93652198549984 0.33795231085297 
C16   C     0.22122910603758 0.82731180714033 0.86674736679966 
C17   C     0.08415816276186 0.89822004924528 0.03451806505585 
C18   C     0.09923857449228 0.86011105597335 0.88175917548178 
