data_stdin
_audit_creation_method 'critic2'
_audit_creation_date 2023-8-11
_chemical_formula_sum 'C18 H12'
_cell_formula_units_Z 4
_cell_length_a        15.4611930907
_cell_length_b        15.7617597210
_cell_length_c         4.8643430966
_cell_angle_alpha        89.9997
_cell_angle_beta        90.0023
_cell_angle_gamma        89.9998
_cell_volume          1185.419060
_space_group_crystal_system orthorhombic
_space_group_IT_number 18
_space_group_name_H-M_alt 'P2_12_12'
_space_group_name_Hall 'P 2 2ab'
loop_
_symmetry_equiv_pos_site_id
_symmetry_equiv_pos_as_xyz
 1 'x,y,z'
 2 '-x,-y,z'
 3 '-1/2+x,-1/2-y,-z'
 4 '-1/2-x,-1/2+y,-z'
loop_
_atom_site_label
_atom_site_type_symbol
_atom_site_fract_x
_atom_site_fract_y
_atom_site_fract_z
H1    H     0.92077275032087 0.49130985010812 0.19749836068508 
H2    H     0.94438419003314 0.38498097986274 0.83812632032878 
H3    H     0.82029434023616 0.32967364969006 0.56302595074343 
H4    H     0.67166055993477 0.37686527000331 0.67419341024248 
H5    H     0.57214479981468 0.45505709987968 0.96284980019486 
H6    H     0.93020816015312 0.60916856026931 0.10798537971768 
H7    H     0.54553630015887 0.55451261021879 0.35111978049250 
H8    H     0.59485163971223 0.64804124006121 0.69724252926105 
H9    H     0.71054552026686 0.73412239029291 0.91560334082752 
H10   H     0.03729194998576 0.70623181028625 0.29465727940012 
H11   H     0.85506806971049 0.78828868983191 0.90890690946879 
H12   H     0.00304460969894 0.79515522993180 0.70814379902256 
C1    C     0.86647053020417 0.47142770987933 0.07187222066182 
C2    C     0.78330195000121 0.50592028000444 0.12388475006192 
C3    C     0.76672721989171 0.57481418019243 0.31468048958183 
C4    C     0.87954043022013 0.40944105000699 0.87480787023603 
C5    C     0.71175745026421 0.46596951986753 0.98773664956864 
C6    C     0.83189134030839 0.63339066981919 0.41557872972809 
C7    C     0.68030358977525 0.58692753014207 0.40539772986351 
C8    C     0.80962905969247 0.37711456014164 0.72187398007655 
C9    C     0.72683224017365 0.40388240000662 0.78299745089293 
C10   C     0.81041136003409 0.69019125983895 0.63600942012468 
C11   C     0.62562281977244 0.48651576969744 0.06773732087319 
C12   C     0.91467235031625 0.64358501971165 0.29431589064572 
C13   C     0.61100349017524 0.54174786011323 0.27910320994096 
C14   C     0.66131372973461 0.64443446013366 0.62392035069926 
C15   C     0.72466676016282 0.69198696009629 0.74379896006276 
C16   C     0.97475466974931 0.70058704012686 0.39608446959604 
C17   C     0.87327671004701 0.74715919023223 0.73890551025541 
C18   C     0.95498167970194 0.75164598974251 0.62482553926799 
