data_stdin
_audit_creation_method 'critic2'
_audit_creation_date 2023-8-11
_chemical_formula_sum 'C18 H12'
_cell_formula_units_Z 4
_cell_length_a        12.7348029083
_cell_length_b         7.5416023002
_cell_length_c        12.7695376468
_cell_angle_alpha        89.9995
_cell_angle_beta        76.9288
_cell_angle_gamma        90.0000
_cell_volume          1194.620765
_space_group_crystal_system monoclinic
_space_group_IT_number 14
_space_group_name_H-M_alt 'P2_1/c'
_space_group_name_Hall '-P 2ybc'
loop_
_symmetry_equiv_pos_site_id
_symmetry_equiv_pos_as_xyz
 1 'x,y,z'
 2 '-x,-y,-z'
 3 '-x,-1/2+y,-1/2-z'
 4 'x,-1/2-y,-1/2+z'
loop_
_atom_site_label
_atom_site_type_symbol
_atom_site_fract_x
_atom_site_fract_y
_atom_site_fract_z
H1    H     0.80934351029558 0.84009812997346 0.55899155031329 
H2    H     0.90363847046176 0.86835860043425 0.37150202961953 
H3    H     0.97503310954736 0.59979993955039 0.26372774027488 
H4    H     0.95395284989753 0.30494095960677 0.35172002038294 
H5    H     0.89298322005348 0.11932505032165 0.50535026976432 
H6    H     0.65997882019710 0.82724220058956 0.60340204009938 
H7    H     0.80741520992662 0.08471210033804 0.69977059964556 
H8    H     0.71905813019235 0.20220381053007 0.86780827979781 
H9    H     0.62675466008349 0.44601151969789 0.98170134038202 
H10   H     0.54145476971081 0.04278535978631 0.71327965018028 
H11   H     0.53830165975239 0.73128385941468 0.99562738988390 
H12   H     0.47983239014653 0.99964479007173 0.91090957028512 
C1    C     0.83431504990501 0.72022076963004 0.51332511988001 
C2    C     0.81237734043792 0.55224800000403 0.56383431975804 
C3    C     0.74971719023800 0.52622002944368 0.67287395965084 
C4    C     0.89027282983667 0.73701816979610 0.40756048972561 
C5    C     0.86113172967962 0.40126826989387 0.50344364985411 
C6    C     0.67898480999590 0.65825701953862 0.73520848975338 
C7    C     0.75590083981177 0.35809015995504 0.72151530012085 
C8    C     0.93085006013493 0.58639129948243 0.34687484974060 
C9    C     0.91854790991767 0.42222115005124 0.39558678019133 
C10   C     0.63757195990090 0.62951271023050 0.84820813010966 
C11   C     0.85514345031273 0.23143587030425 0.55316205986666 
C12   C     0.63949608027206 0.80901200959914 0.68978232995937 
C13   C     0.80789149994549 0.21219594032509 0.65959875986838 
C14   C     0.71007769975773 0.33170824026711 0.83324150968162 
C15   C     0.65815920027772 0.46597553025641 0.89581566020600 
C16   C     0.57030864974673 0.92971478956139 0.75156269008512 
C17   C     0.56857477965795 0.75682024976883 0.91011877009878 
C18   C     0.53553356971585 0.90547936966887 0.86320820968379 
