data_stdin
_audit_creation_method 'critic2'
_audit_creation_date 2023-8-11
_chemical_formula_sum 'C18 H12'
_cell_formula_units_Z 4
_cell_length_a        10.4235156216
_cell_length_b        10.9499534000
_cell_length_c        11.0957997802
_cell_angle_alpha        90.0000
_cell_angle_beta        72.7543
_cell_angle_gamma        90.0000
_cell_volume          1209.505223
_space_group_crystal_system monoclinic
_space_group_IT_number 14
_space_group_name_H-M_alt 'P2_1/c'
_space_group_name_Hall '-P 2ybc'
loop_
_symmetry_equiv_pos_site_id
_symmetry_equiv_pos_as_xyz
 1 'x,y,z'
 2 '-x,-y,-z'
 3 '-x,-1/2+y,-1/2-z'
 4 'x,-1/2-y,-1/2+z'
loop_
_atom_site_label
_atom_site_type_symbol
_atom_site_fract_x
_atom_site_fract_y
_atom_site_fract_z
H1    H     0.48024736987435 0.11180569000906 0.01278233004929 
H2    H     0.30067068032630 0.98290314987496 0.98871132968712 
H3    H     0.06345695027784 0.05697051968250 0.05213963015196 
H4    H     0.01104357985682 0.26018135969223 0.15269610997342 
H5    H     0.07750531990694 0.44503408015155 0.23605636978565 
H6    H     0.59437686024814 0.21098767958445 0.89269169017245 
H7    H     0.25319116953355 0.57034794040535 0.28477008002893 
H8    H     0.47840446997387 0.61032000997533 0.27349608033799 
H9    H     0.72047747009516 0.56093207972331 0.20110811002683 
H10   H     0.83322600985876 0.17635089971853 0.81212303961866 
H11   H     0.90362351991393 0.44217803043417 0.07100989996658 
H12   H     0.99399297974144 0.28556111021515 0.90480585954836 
C1    C     0.37972058025337 0.14943928033099 0.03802244990628 
C2    C     0.35547510032670 0.26932770013453 0.08820417021207 
C3    C     0.45939406948150 0.35150529962485 0.10276218047051 
C4    C     0.27745152029563 0.07478240966634 0.02572451006645 
C5    C     0.21721926043582 0.30621330991084 0.13491776003167 
C6    C     0.60261489033142 0.33436207990429 0.04400935020804 
C7    C     0.41814538019425 0.45567814960426 0.18113202974926 
C8    C     0.14358325965310 0.11541532980773 0.06357833974270 
C9    C     0.11466095987413 0.22898910968703 0.11878777040088 
C10   C     0.69596275031652 0.40711097993880 0.08595030021969 
C11   C     0.18272428003491 0.41791244977274 0.20257417973088 
C12   C     0.65882939023649 0.25549925037389 0.94019636964075 
C13   C     0.27954334055986 0.48735163017251 0.22886008954776 
C14   C     0.51445846969238 0.53115829038883 0.21353081000321 
C15   C     0.64829969991839 0.50487730977025 0.17236361022177 
C16   C     0.79611011014003 0.23815559014512 0.89174405025429 
C17   C     0.83577390975536 0.38625771011711 0.03591826981559 
C18   C     0.88620697008876 0.30074768021556 0.94230176031863 
