data_stdin
_audit_creation_method 'critic2'
_audit_creation_date 2023-8-11
_chemical_formula_sum 'C18 H12'
_cell_formula_units_Z 4
_cell_length_a         5.1067275113
_cell_length_b        15.1627995252
_cell_length_c        15.5537105443
_cell_angle_alpha        89.9996
_cell_angle_beta        86.5000
_cell_angle_gamma        89.9968
_cell_volume          1202.112989
_space_group_crystal_system monoclinic
_space_group_IT_number 14
_space_group_name_H-M_alt 'P2_1/c'
_space_group_name_Hall '-P 2ybc'
loop_
_symmetry_equiv_pos_site_id
_symmetry_equiv_pos_as_xyz
 1 'x,y,z'
 2 '-x,-y,-z'
 3 '-x,-1/2+y,-1/2-z'
 4 'x,-1/2-y,-1/2+z'
loop_
_atom_site_label
_atom_site_type_symbol
_atom_site_fract_x
_atom_site_fract_y
_atom_site_fract_z
H1    H     0.26721338921246 0.18303383987676 0.06781734981053 
H2    H     0.96364654080786 0.08308064026480 0.00209925993153 
H3    H     0.60483902050836 0.00848123014621 0.09264027980755 
H4    H     0.58042566988873 0.03047356983925 0.25089855022339 
H5    H     0.75634094038627 0.09005758993973 0.37886680011269 
H6    H     0.18832834029584 0.30894720000688 0.07807624974440 
H7    H     0.08951099039364 0.17912632969418 0.44877055006244 
H8    H     0.46571525036826 0.27536019010023 0.44071992022274 
H9    H     0.78111657044649 0.37166153014687 0.35795753020966 
H10   H     0.47185234060847 0.41663562974425 0.00128540016155 
H11   H     0.92165897920418 0.44493628995022 0.22477565004911 
H12   H     0.85426390903498 0.48243450978822 0.07270483025033 
C1    C     0.10681548971036 0.15508279986783 0.10780777025979 
C2    C     0.08522081046563 0.17476931993884 0.19712676999917 
C3    C     0.25117949029954 0.23752999982034 0.23836480012817 
C4    C     0.93818564015153 0.09674216967548 0.07087088017777 
C5    C     0.89910798074974 0.12413387013922 0.24918752983788 
C6    C     0.40608409941372 0.30469395999671 0.19275165994308 
C7    C     0.26268951018108 0.23316263024905 0.32929664014032 
C8    C     0.73968913914350 0.05359281015929 0.12179265002019 
C9    C     0.72463030919950 0.06625149978855 0.20989000031011 
C10   C     0.60485429046055 0.35058688007554 0.23627874030270 
C11   C     0.90024844052154 0.12885308021633 0.34062250015375 
C12   C     0.35972105934325 0.33339643992699 0.10830443007503 
C13   C     0.08386888927792 0.17823742977683 0.37891905010203 
C14   C     0.45354151940408 0.28348484014656 0.37148108002412 
C15   C     0.62702211044976 0.33701491970222 0.32616791979275 
C16   C     0.51642553955432 0.39599074001465 0.06585573988743 
C17   C     0.76769242939780 0.41265208004775 0.19089380976893 
C18   C     0.72830307084076 0.43402092028317 0.10630390001820 
