data_stdin
_audit_creation_method 'critic2'
_audit_creation_date 2023-8-11
_chemical_formula_sum 'C18 H12'
_cell_formula_units_Z 4
_cell_length_a         9.9018917180
_cell_length_b         5.1027093012
_cell_length_c        23.6825876356
_cell_angle_alpha        89.9991
_cell_angle_beta        96.3852
_cell_angle_gamma        90.0006
_cell_volume          1189.174704
_space_group_crystal_system monoclinic
_space_group_IT_number 14
_space_group_name_H-M_alt 'P2_1/c'
_space_group_name_Hall '-P 2ybc'
loop_
_symmetry_equiv_pos_site_id
_symmetry_equiv_pos_as_xyz
 1 'x,y,z'
 2 '-x,-y,-z'
 3 '-x,-1/2+y,-1/2-z'
 4 'x,-1/2-y,-1/2+z'
loop_
_atom_site_label
_atom_site_type_symbol
_atom_site_fract_x
_atom_site_fract_y
_atom_site_fract_z
H1    H     0.06132811039294 0.78647938903325 0.40917499981480 
H2    H     0.29474620981549 0.92631080003298 0.40428353992295 
H3    H     0.34492830012995 0.32563826074917 0.34964764011679 
H4    H     0.15339347948736 0.57805245924552 0.29858994987816 
H5    H     0.91581246000351 0.63059260938827 0.26740453984676 
H6    H     0.95068286042213 0.87431235066873 0.46798876986132 
H7    H     0.68281626949375 0.45282849979409 0.25833778983673 
H8    H     0.52172135024479 0.13181191953484 0.28007624985381 
H9    H     0.45273188026610 0.75837028015551 0.33762286990299 
H10   H     0.87078159974007 0.54221521987450 0.52973362999397 
H11   H     0.49962060983359 0.46538375966362 0.41840692020504 
H12   H     0.64759793025300 0.31492285043681 0.50311748008678 
C1    C     0.07891901959963 0.96922507983685 0.38793043017937 
C2    C     0.96667514972864 0.11352774092257 0.36158965015235 
C3    C     0.82577076011660 0.03708657902425 0.36303817997152 
C4    C     0.21169179985654 0.04495217084339 0.38401739011582 
C5    C     0.99726666045166 0.33332360984985 0.32737948992276 
C6    C     0.77894738979269 0.85092918924292 0.40286331008042 
C7    C     0.72747677973190 0.14858178051386 0.32169394987181 
C8    C     0.24004928043480 0.26967157956964 0.35304368012587 
C9    C     0.13391705018288 0.41001894056682 0.32485877983140 
C10   C     0.64452149038468 0.74397190095036 0.39190248004787 
C11   C     0.89109309980039 0.46207052989338 0.29239071000697 
C12   C     0.85538216992606 0.77627945058617 0.45455888991981 
C13   C     0.76223856002718 0.36389458077846 0.28767885005004 
C14   C     0.59269894030799 0.04586511058109 0.31351500979364 
C15   C     0.55438585028942 0.84195743973380 0.34556753983883 
C16   C     0.80919724009670 0.58930338027801 0.49008861015653 
C17   C     0.60072853039268 0.54887369970529 0.42826286993504 
C18   C     0.68259835044685 0.46703276056928 0.47600237982623 
