data_stdin
_audit_creation_method 'critic2'
_audit_creation_date 2023-8-11
_chemical_formula_sum 'C18 H12'
_cell_formula_units_Z 8
_cell_length_a        23.4740498614
_cell_length_b         7.0904109342
_cell_length_c        16.8529525112
_cell_angle_alpha        89.9996
_cell_angle_beta        59.3820
_cell_angle_gamma        90.0015
_cell_volume          2413.946099
_space_group_crystal_system monoclinic
_space_group_IT_number 15
_space_group_name_H-M_alt 'C2/c'
_space_group_name_Hall '-C 2yc'
loop_
_symmetry_equiv_pos_site_id
_symmetry_equiv_pos_as_xyz
 1 'x,y,z'
 2 '-x,-y,-z'
 3 '-x,y,-1/2-z'
 4 'x,-y,-1/2+z'
 5 '-1/2+x,-1/2+y,z'
 6 '-1/2-x,-1/2-y,-z'
 7 '-1/2-x,-1/2+y,-1/2-z'
 8 '-1/2+x,-1/2-y,-1/2+z'
loop_
_atom_site_label
_atom_site_type_symbol
_atom_site_fract_x
_atom_site_fract_y
_atom_site_fract_z
H1    H     0.29479533021778 0.45019651031103 0.85499291990142 
H2    H     0.41506119010393 0.42623746950539 0.76460917987819 
H3    H     0.48452429019550 0.71375967955392 0.69030966971754 
H4    H     0.42855381999377 0.01910536957810 0.70372845015276 
H5    H     0.33087621031135 0.20077169029489 0.74857201973704 
H6    H     0.24148069976956 0.48096823028945 0.98634840005049 
H7    H     0.20870167023984 0.22506628014987 0.82742650969959 
H8    H     0.10242065993496 0.08762595932973 0.90791579004762 
H9    H     0.02714565990926 0.81838584065130 0.98985432989633 
H10   H     0.16466733999318 0.22984903045318 0.07610797977359 
H11   H     0.00889375003715 0.51150555987648 0.06007096017439 
H12   H     0.04824677012800 0.23370135936334 0.10961757019642 
C1    C     0.32351845017279 0.57817303065694 0.82752482009435 
C2    C     0.29010716996707 0.75263107987069 0.84137777992088 
C3    C     0.21870258980634 0.77404186020756 0.89551211025596 
C4    C     0.39171181991650 0.56395362938936 0.77456450967080 
C5    C     0.33002937975535 0.91131013944735 0.79079863033563 
C6    C     0.17350302988227 0.63164850029731 0.95757913992211 
C7    C     0.19087646001349 0.94248830056657 0.88399363006915 
C8    C     0.43080520987858 0.72425837016912 0.73136876017986 
C9    C     0.39975377971422 0.89417078001697 0.73896818027845 
C10   C     0.10450646995242 0.64518709979689 0.98698515969743 
C11   C     0.29950350974408 0.08348965946765 0.78898192015113 
C12   C     0.19228201977623 0.48227384025701 0.99546405003769 
C13   C     0.23222999006157 0.09673232982828 0.83221296025819 
C14   C     0.12118822007301 0.95758173052390 0.92058417026993 
C15   C     0.07985588995422 0.81013871067673 0.96600668012758 
C16   C     0.14821699997121 0.34250080969857 0.04876750984991 
C17   C     0.06065694998369 0.49890386955213 0.04046090984284 
C18   C     0.08222169991431 0.34663195995487 0.06921959018270 
