data_stdin
_audit_creation_method 'critic2'
_audit_creation_date 2023-8-11
_chemical_formula_sum 'C18 H12'
_cell_formula_units_Z 4
_cell_length_a        15.7022089490
_cell_length_b        10.2419993000
_cell_length_c         7.7318456095
_cell_angle_alpha        89.9996
_cell_angle_beta        75.0761
_cell_angle_gamma        90.0002
_cell_volume          1201.507900
_space_group_crystal_system monoclinic
_space_group_IT_number 14
_space_group_name_H-M_alt 'P2_1/c'
_space_group_name_Hall '-P 2ybc'
loop_
_symmetry_equiv_pos_site_id
_symmetry_equiv_pos_as_xyz
 1 'x,y,z'
 2 '-x,-y,-z'
 3 '-x,-1/2+y,-1/2-z'
 4 'x,-1/2-y,-1/2+z'
loop_
_atom_site_label
_atom_site_type_symbol
_atom_site_fract_x
_atom_site_fract_y
_atom_site_fract_z
H1    H     0.08951327018366 0.50502332999365 0.24032078979334 
H2    H     0.94873703995704 0.42181285046549 0.41153420037367 
H3    H     0.92885876025623 0.18446860031957 0.48807379974716 
H4    H     0.05348536023179 0.03189534986669 0.36819215952113 
H5    H     0.19872863996683 0.98783954041419 0.18345416010864 
H6    H     0.17570143976740 0.56982376008086 0.34968896062782 
H7    H     0.33673865967739 0.06587930951422 0.97499975061948 
H8    H     0.43215063972704 0.23538453986849 0.83606479043351 
H9    H     0.47654090991612 0.46807475954604 0.80564805063746 
H10   H     0.23141399983568 0.79220994987901 0.34214886936994 
H11   H     0.45371462983333 0.69017876979473 0.91008880028658 
H12   H     0.36844784994833 0.85814498048464 0.11537674049163 
C1    C     0.08493468993569 0.40236863979750 0.27573011953351 
C2    C     0.15929753003171 0.32001846028172 0.21674722033749 
C3    C     0.24644208998676 0.36530069033692 0.12218793002532 
C4    C     0.00388352979081 0.35455637044982 0.37020354937746 
C5    C     0.14448442018569 0.18248933011441 0.24434147065711 
C6    C     0.27684680987654 0.49924419959329 0.12190799037841 
C7    C     0.30713909025251 0.27096967966057 0.02716355032181 
C8    C     0.99241028002599 0.22097660025880 0.41066570978311 
C9    C     0.06177830006335 0.13658531953295 0.34578714987062 
C10   C     0.35999771999233 0.53547562042868 0.00356286948313 
C11   C     0.21142782002937 0.09189052986947 0.16141692971627 
C12   C     0.23321884963030 0.59632970004183 0.24443794049889 
C13   C     0.28795041012388 0.13491616023542 0.04868498943622 
C14   C     0.38923219988621 0.31068411031483 0.91157231023607 
C15   C     0.41370335018617 0.43884199997193 0.89481695034924 
C16   C     0.26534247005815 0.72218869018745 0.24189584005896 
C17   C     0.39071419991590 0.66560109015616 0.00209088978055 
C18   C     0.34386057990974 0.75867151036515 0.11681543063004 
