data_stdin
_audit_creation_method 'critic2'
_audit_creation_date 2023-8-11
_chemical_formula_sum 'C18 H12'
_cell_formula_units_Z 2
_cell_length_a         3.8429585903
_cell_length_b        10.2935533052
_cell_length_c        15.5994320985
_cell_angle_alpha        71.2677
_cell_angle_beta        82.5217
_cell_angle_gamma        92.9282
_cell_volume           576.577990
_space_group_crystal_system triclinic
_space_group_IT_number 2
_space_group_name_H-M_alt 'P-1'
_space_group_name_Hall '-P 1'
loop_
_symmetry_equiv_pos_site_id
_symmetry_equiv_pos_as_xyz
 1 'x,y,z'
 2 '-x,-y,-z'
loop_
_atom_site_label
_atom_site_type_symbol
_atom_site_fract_x
_atom_site_fract_y
_atom_site_fract_z
H1    H     0.00116155976873 0.57415377025871 0.39770614969297 
H2    H     0.90013154887800 0.67170038019607 0.52084736981204 
H3    H     0.64893756972368 0.89714166048129 0.49479555996839 
H4    H     0.51520642010938 0.02580823022860 0.33997815024625 
H5    H     0.52183124121587 0.05161235943092 0.18031776029769 
H6    H     0.66713353993348 0.44455593034511 0.37294757991622 
H7    H     0.69763098121300 0.97056946037831 0.04915103985970 
H8    H     0.96873147976940 0.81120585041704 0.98611442018913 
H9    H     0.21342187890597 0.58750933007968 0.00428092034305 
H10   H     0.81478332955112 0.21265002995410 0.38435148002467 
H11   H     0.27216037912646 0.35490873041704 0.09981387990329 
H12   H     0.13467381060676 0.16544633962977 0.24944618018339 
C1    C     0.87350675126408 0.66857694982982 0.38534618024355 
C2    C     0.78730786866213 0.73593183975509 0.29712895018103 
C3    C     0.84408932980031 0.68206562038540 0.22178614972925 
C4    C     0.82312476977902 0.72500430965834 0.45480030009166 
C5    C     0.66723542879133 0.87028063990664 0.28111040033765 
C6    C     0.91338629018794 0.54125695980546 0.23146385987206 
C7    C     0.83951855085740 0.77395332991485 0.13200806018728 
C8    C     0.68585558881468 0.85321425025244 0.43971775996750 
C9    C     0.61230522052613 0.92469990036852 0.35382391980535 
C10   C     0.06304007930215 0.51002401956043 0.15207267000764 
C11   C     0.62087310002027 0.95121921977422 0.19097261010056 
C12   C     0.81895558065358 0.42875394007464 0.31401682011349 
C13   C     0.71582544000049 0.90620471958541 0.11877845036006 
C14   C     0.96733865122608 0.73647890995311 0.05399644982050 
C15   C     0.09857743950124 0.61268098955289 0.06384316037467 
C16   C     0.89611009087763 0.29660679028623 0.32001306022327 
C17   C     0.15095596076454 0.37502405956205 0.16082361980129 
C18   C     0.07311520045669 0.26963918012381 0.24371916987446 
