data_stdin
_audit_creation_method 'critic2'
_audit_creation_date 2023-8-11
_chemical_formula_sum 'C18 H12'
_cell_formula_units_Z 16
_cell_length_a        44.6483648958
_cell_length_b        14.1557367695
_cell_length_c         7.6554477400
_cell_angle_alpha        89.9999
_cell_angle_beta        90.0043
_cell_angle_gamma        90.0176
_cell_volume          4838.476226
_space_group_crystal_system monoclinic
_space_group_IT_number 5
_space_group_name_H-M_alt 'C2'
_space_group_name_Hall 'C 2y'
loop_
_symmetry_equiv_pos_site_id
_symmetry_equiv_pos_as_xyz
 1 'x,y,z'
 2 '-1/2-x,-1/2-y,z'
 3 '-1/2+x,y,-1/2+z'
 4 '-x,-1/2-y,-1/2+z'
 5 'x,-1/2+y,-1/2+z'
 6 '-1/2-x,-y,-1/2+z'
 7 '-1/2+x,-1/2+y,z'
 8 '-x,-y,z'
loop_
_atom_site_label
_atom_site_type_symbol
_atom_site_fract_x
_atom_site_fract_y
_atom_site_fract_z
H1    H     0.17701613009812 0.42580132010224 0.48259445002798 
H2    H     0.07297889997642 0.67580550982156 0.73258291942031 
H3    H     0.20204136990886 0.29625019016708 0.32929545034584 
H4    H     0.04794810001322 0.54621525984769 0.57927362954738 
H5    H     0.24021525999513 0.32982043987689 0.09780473063660 
H6    H     0.00977877006192 0.57972579979679 0.34773116967081 
H7    H     0.24941986006322 0.49543910002948 0.00818340034840 
H8    H     0.00058203990456 0.74532643990558 0.25809671999091 
H9    H     0.23797937008661 0.66115949995411 0.02423352961605 
H10   H     0.01202203997396 0.91106676997218 0.27417403059092 
H11   H     0.19595477009095 0.48742151993255 0.70009846941287 
H12   H     0.05405367993975 0.73736629996303 0.95006228993616 
H13   H     0.20661227993502 0.79118316032193 0.14302880060064 
H14   H     0.04338492999649 0.04115148999034 0.39303927005356 
H15   H     0.16801904999085 0.84646764015127 0.33337823058900 
H16   H     0.08196677008162 0.09651594012192 0.58345552989056 
H17   H     0.13739552992748 0.82981287034583 0.60275492016516 
H18   H     0.11258573993422 0.07992876031200 0.85287790042136 
H19   H     0.17289344005447 0.48752127978248 0.99011412985484 
H20   H     0.07711009002231 0.73751285971308 0.24010283943590 
H21   H     0.12804429003434 0.74847974018410 0.87409584022062 
H22   H     0.12193599011195 0.99860943019691 0.12420503941794 
H23   H     0.13805968004939 0.61599361997407 0.07821646039651 
H24   H     0.11192890003370 0.86608625015130 0.32828997977649 
C1    C     0.19424759003936 0.44231506035045 0.38701349031049 
C2    C     0.05574814997050 0.69229333988573 0.63698826951410 
C3    C     0.20061820992461 0.53827638982458 0.34734148990751 
C4    C     0.04938140990726 0.78824507014168 0.59731212059765 
C5    C     0.18687673004004 0.61774702005038 0.43586944972585 
C6    C     0.06312208002320 0.86773925989341 0.68586789007721 
C7    C     0.20815308002859 0.36888716017729 0.29904444978736 
C8    C     0.04183915999484 0.61884255966369 0.54901392030443 
C9    C     0.22007772008234 0.55609659003527 0.20173655987600 
C10   C     0.02992296010487 0.80603344028391 0.45168686944501 
C11   C     0.17339320005825 0.61374675981537 0.60799829980647 
C12   C     0.07660541998364 0.86376046971341 0.85801059001379 
C13   C     0.18708509004357 0.70631122988628 0.34881321966749 
C14   C     0.06291073992936 0.95630943989622 0.59883179987841 
C15   C     0.22924356991833 0.38759558995419 0.16652427037997 
C16   C     0.02075228007777 0.63751734970145 0.41646317039920 
C17   C     0.23463015010908 0.47989974998328 0.11742918994213 
C18   C     0.01536958990350 0.72981263980543 0.36736177034491 
C19   C     0.15492655006138 0.69090387030839 0.66508778943895 
C20   C     0.09506506999193 0.94096497028326 0.91514470051536 
C21   C     0.22306926991465 0.64959290973134 0.13485543945032 
C22   C     0.02693076989553 0.89952638034898 0.38481415939244 
C23   C     0.17962926989470 0.54167895033982 0.73174962019633 
C24   C     0.07037455996885 0.79166716008826 0.98174053054221 
C25   C     0.20586979989218 0.72087671995033 0.20051752013310 
C26   C     0.04412810004514 0.97084280014405 0.45051318973586 
C27   C     0.16862239994303 0.78162325026325 0.40966211943717 
C28   C     0.08136739003664 0.03166490965829 0.65972348008785 
C29   C     0.15184036005161 0.77265998973950 0.55777667951499 
C30   C     0.09814674006308 0.02273821998225 0.80786225020227 
C31   C     0.16695446000334 0.54232511999014 0.89670447974365 
C32   C     0.08304580009873 0.79234054976799 0.14671510053581 
C33   C     0.14183736995089 0.68894696978847 0.83346054037417 
C34   C     0.10815045995912 0.93903690987227 0.08353820041188 
C35   C     0.14749874007569 0.61552524023981 0.94740058947062 
C36   C     0.10249413000404 0.86559290027009 0.19745546039883 
