data_stdin
_audit_creation_method 'critic2'
_audit_creation_date 2023-8-11
_chemical_formula_sum 'C18 H12'
_cell_formula_units_Z 2
_cell_length_a        10.5281347522
_cell_length_b         7.3849115900
_cell_length_c         8.2391605295
_cell_angle_alpha        90.0000
_cell_angle_beta        66.6882
_cell_angle_gamma        90.0000
_cell_volume           588.294889
_space_group_crystal_system monoclinic
_space_group_IT_number 4
_space_group_name_H-M_alt 'P2_1'
_space_group_name_Hall 'P 2yb'
loop_
_symmetry_equiv_pos_site_id
_symmetry_equiv_pos_as_xyz
 1 'x,y,z'
 2 '-x,-1/2+y,-z'
loop_
_atom_site_label
_atom_site_type_symbol
_atom_site_fract_x
_atom_site_fract_y
_atom_site_fract_z
H1    H     0.24023912964342 0.00050565990926 0.28646491988320 
H2    H     0.45810911013846 0.93640952974820 0.03442433057041 
H3    H     0.64746678949727 0.76557075996821 0.07804133066088 
H4    H     0.62446649988032 0.69408292042106 0.38257609964155 
H5    H     0.49790356034841 0.71363654942242 0.70029667963629 
H6    H     0.09271078018542 0.80610162949700 0.35719034001021 
H7    H     0.29203216015902 0.81924547017112 0.95754717061761 
H8    H     0.06359071990916 0.94215236046631 0.08305559065942 
H9    H     0.84211174028831 0.01632190028780 0.06066251934123 
H10   H     0.86452039988340 0.84225403983448 0.34989283022365 
H11   H     0.70027061987690 0.02378478958788 0.88957852008211 
H12   H     0.66688012978636 0.96356435047592 0.61299588992760 
C1    C     0.32027365971309 0.92342495985731 0.30765445043907 
C2    C     0.29870593006572 0.86803369938491 0.48155812027456 
C3    C     0.16892913026913 0.88953247055046 0.63337979984296 
C4    C     0.44388369956821 0.88921346047629 0.16579626028568 
C5    C     0.41578889044698 0.79575977967915 0.50772093958023 
C6    C     0.03508159972961 0.90736154003163 0.62365842988243 
C7    C     0.17332916978436 0.88703593052698 0.80345016042946 
C8    C     0.55218824996075 0.79740633988844 0.19053679006167 
C9    C     0.53907360029155 0.75616212060861 0.35987669024263 
C10   C     0.91749262023836 0.95653782998183 0.77997091934608 
C11   C     0.40905451034284 0.77127452960109 0.68258743947070 
C12   C     0.00995149002465 0.86374230002144 0.47135084967836 
C13   C     0.29499694994806 0.82716372979022 0.82409698047824 
C14   C     0.05443156034389 0.93639254950167 0.95601296032814 
C15   C     0.93183906019472 0.97601670005014 0.94405697047623 
C16   C     0.88011095974667 0.88104543006504 0.46823695042548 
C17   C     0.78675198053978 0.97921156002764 0.77127192955241 
C18   C     0.76784878993131 0.94454698021112 0.61764397986083 
