data_stdin
_audit_creation_method 'critic2'
_audit_creation_date 2023-8-11
_chemical_formula_sum 'C18 H12'
_cell_formula_units_Z 8
_cell_length_a        30.7886786182
_cell_length_b         3.8955469068
_cell_length_c        20.7079630214
_cell_angle_alpha        90.1234
_cell_angle_beta        69.3016
_cell_angle_gamma        90.0286
_cell_volume          2323.369462
_space_group_crystal_system triclinic
_space_group_IT_number 2
_space_group_name_H-M_alt 'P-1'
_space_group_name_Hall '-P 1'
loop_
_symmetry_equiv_pos_site_id
_symmetry_equiv_pos_as_xyz
 1 'x,y,z'
 2 '-x,-y,-z'
 3 '-1/2+x,-1/2+y,z'
 4 '-1/2-x,-1/2-y,-z'
loop_
_atom_site_label
_atom_site_type_symbol
_atom_site_fract_x
_atom_site_fract_y
_atom_site_fract_z
H1    H     0.45420446536388 0.65816445191557 0.25915162982412 
H2    H     0.54576707317226 0.65895881948786 0.24079757630898 
H3    H     0.51728692524999 0.70871441261050 0.14779290206205 
H4    H     0.48260722048631 0.70801788919576 0.35213704549271 
H5    H     0.50068345623729 0.72476957851006 0.03849775006980 
H6    H     0.49907964443731 0.72196825559584 0.46154707599718 
H7    H     0.41983034934067 0.62674748271764 0.04293243468183 
H8    H     0.57990911091421 0.62334631298482 0.45714431029338 
H9    H     0.33899136389728 0.50561425958824 0.10715012376654 
H10   H     0.66077871641246 0.50334168345288 0.39292976404427 
H11   H     0.42352507367482 0.06112394459775 0.31132398176130 
H12   H     0.57644257943936 0.06135764554037 0.18899957762143 
H13   H     0.27638125273312 0.37432747365365 0.21817647130473 
H14   H     0.72351690988212 0.37391988320171 0.28180606309697 
H15   H     0.24756174795048 0.33514488351438 0.34092399117761 
H16   H     0.75244256728137 0.33590818908249 0.15905465592858 
H17   H     0.25668513327253 0.41448667732892 0.45410178002845 
H18   H     0.74338219485557 0.41514288795675 0.04588795113319 
H19   H     0.42765055210551 0.18473590620833 0.42444705226235 
H20   H     0.57233239286025 0.18415253383006 0.07592828295046 
H21   H     0.30003947562394 0.63514114321461 0.52202878208242 
H22   H     0.70000294857228 0.63461186857320 0.97807661755487 
H23   H     0.36739746583399 0.95533010001862 0.53158175586757 
H24   H     0.63260561956564 0.95402415304795 0.96867399046321 
C1    C     0.44568268393440 0.67393702731712 0.21269091028506 
C2    C     0.55424181629470 0.67378198604661 0.28731751601151 
C3    C     0.39859111643679 0.65447853363758 0.21774905361733 
C4    C     0.60131686763944 0.65403633449660 0.28232518736291 
C5    C     0.35971678990520 0.64110669747924 0.28260006859021 
C6    C     0.64023682745554 0.64126415608217 0.21750567133310 
C7    C     0.48153913597822 0.69645809830473 0.14970881000165 
C8    C     0.51833723847581 0.69544993120263 0.35028373813157 
C9    C     0.39013604002150 0.61917509026472 0.15419367993519 
C10   C     0.60970184888281 0.61766077428671 0.34588662132408 
C11   C     0.36206497975486 0.74096791725131 0.34875955004074 
C12   C     0.63792311753702 0.74115905893833 0.15140309637922 
C13   C     0.31666558017446 0.51653072823181 0.28129641537223 
C14   C     0.68328679281650 0.51674278926437 0.21875553692554 
C15   C     0.47235076457695 0.69830318275572 0.08783843048494 
C16   C     0.52745216241201 0.69607249441498 0.41220984506856 
C17   C     0.42733880107995 0.65091044949844 0.09038874655779 
C18   C     0.57244576859500 0.64843995007273 0.40968754537690 
C19   C     0.32497741168707 0.64503095992908 0.41077087173553 
C20   C     0.67504139059629 0.64517103555968 0.08934310627637 
C21   C     0.34479704338445 0.53225806064507 0.15584455542292 
C22   C     0.65503111564170 0.53076115061028 0.34422918918022 
C23   C     0.39796753924775 0.94634907761321 0.35657477553544 
C24   C     0.60201419097796 0.94635144329303 0.14368917631377 
C25   C     0.31010704462972 0.46488956097933 0.21712194313230 
C26   C     0.68978861207515 0.46438437322392 0.28290846943149 
C27   C     0.27957065773600 0.43985899117873 0.34407696394253 
C28   C     0.72043308780624 0.44045417621150 0.15594036011460 
C29   C     0.28445488383244 0.48589062079555 0.40651206654433 
C30   C     0.71558140413662 0.48641377518021 0.09351864899873 
C31   C     0.39987594669990 0.02131520940861 0.42084467079492 
C32   C     0.60011223110584 0.02084932855550 0.07945273572607 
C33   C     0.32817174190156 0.71934589572765 0.47584308933977 
C34   C     0.67185192583125 0.71895445623521 0.02430447823824 
C35   C     0.36542658833540 0.89883740256135 0.48118700140827 
C36   C     0.63457696293803 0.89806185625996 0.01904629566215 
