data_stdin
_audit_creation_method 'critic2'
_audit_creation_date 2023-8-11
_chemical_formula_sum 'C18 H12'
_cell_formula_units_Z 8
_cell_length_a        14.3510429860
_cell_length_b         7.7769829001
_cell_length_c        21.0160191509
_cell_angle_alpha        89.9997
_cell_angle_beta        89.9978
_cell_angle_gamma        89.9999
_cell_volume          2345.551995
_space_group_crystal_system orthorhombic
_space_group_IT_number 61
_space_group_name_H-M_alt 'Pbca'
_space_group_name_Hall '-P 2ac 2ab'
loop_
_symmetry_equiv_pos_site_id
_symmetry_equiv_pos_as_xyz
 1 'x,y,z'
 2 '-x,-y,-z'
 3 '-1/2+x,-1/2-y,-z'
 4 '-1/2-x,-1/2+y,z'
 5 '-x,-1/2+y,-1/2-z'
 6 'x,-1/2-y,-1/2+z'
 7 '-1/2-x,-y,-1/2+z'
 8 '-1/2+x,y,-1/2-z'
loop_
_atom_site_label
_atom_site_type_symbol
_atom_site_fract_x
_atom_site_fract_y
_atom_site_fract_z
H1    H     0.82818959999853 0.21196558055127 0.31871008976876 
H2    H     0.94453018010796 0.12387055969394 0.39633734997364 
H3    H     0.89675703990255 0.01375946023913 0.50324863997503 
H4    H     0.72884988017305 0.01067297014204 0.53207157994338 
H5    H     0.56882322018495 0.08393896964632 0.50898417998279 
H6    H     0.77442908968564 0.04955285032776 0.25747682000947 
H7    H     0.45160564021949 0.21439617055390 0.43723631981455 
H8    H     0.40861481996472 0.34081515992943 0.33717225982813 
H9    H     0.44201263992017 0.40588405984401 0.22445510999113 
H10   H     0.78973993010361 0.06657348031692 0.14304203012182 
H11   H     0.53590837000128 0.36119256019259 0.13117703983148 
H12   H     0.67275817029979 0.22708199939191 0.07741621023204 
C1    C     0.80473857000158 0.16111624971781 0.36403859980218 
C2    C     0.70802587010527 0.15074477041030 0.37733394002761 
C3    C     0.63560282991207 0.19605554990798 0.33220811976334 
C4    C     0.87105468006075 0.11449635057785 0.40858277020952 
C5    C     0.68192826987242 0.10352150987744 0.44084437022419 
C6    C     0.64895816008886 0.20564298997486 0.26384456006162 
C7    C     0.54501732973068 0.23099823057598 0.35629291993275 
C8    C     0.84426228980923 0.05454756982038 0.46902818979983 
C9    C     0.75093066025727 0.05100415023871 0.48479527022169 
C10   C     0.57827176988236 0.28517419996273 0.22547016002965 
C11   C     0.58738681029400 0.12019082991034 0.46056150997719 
C12   C     0.72401680984523 0.12573102044532 0.23129810993452 
C13   C     0.52246541032751 0.19027669987983 0.42072093993714 
C14   C     0.47585397009193 0.30743714058567 0.31651244012140 
C15   C     0.49366445992168 0.34186291027973 0.25402133982279 
C16   C     0.73195914029200 0.13310087950221 0.16574110013985 
C17   C     0.58971012014982 0.29579959956676 0.15867566009135 
C18   C     0.66541958017503 0.22119202059149 0.12892613999391 
