data_stdin
_audit_creation_method 'critic2'
_audit_creation_date 2023-8-11
_chemical_formula_sum 'C18 H12'
_cell_formula_units_Z 4
_cell_length_a         7.3005814021
_cell_length_b        10.7863483776
_cell_length_c        15.3602284282
_cell_angle_alpha        90.0003
_cell_angle_beta        90.0000
_cell_angle_gamma        89.9983
_cell_volume          1209.565984
_space_group_crystal_system monoclinic
_space_group_IT_number 4
_space_group_name_H-M_alt 'P2_1'
_space_group_name_Hall 'P 2yb'
loop_
_symmetry_equiv_pos_site_id
_symmetry_equiv_pos_as_xyz
 1 'x,y,z'
 2 '-x,-y,-1/2+z'
loop_
_atom_site_label
_atom_site_type_symbol
_atom_site_fract_x
_atom_site_fract_y
_atom_site_fract_z
H1    H     0.64779990939368 0.56021466039554 0.99950683989360 
H2    H     0.85208417064380 0.56025274990726 0.49950515001252 
H3    H     0.61479889029753 0.33502002999651 0.99228344981168 
H4    H     0.88487029981223 0.33503915045220 0.49230966022607 
H5    H     0.50187579966462 0.21566798969372 0.12111715008991 
H6    H     0.99784160036727 0.21567439997326 0.62114086972832 
H7    H     0.44527172048933 0.32695431954836 0.26005018030947 
H8    H     0.05482332948137 0.32697460966090 0.76002756026186 
H9    H     0.45375594050091 0.51173032956282 0.34702913998086 
H10   H     0.04688791021905 0.51180971989966 0.84695729999198 
H11   H     0.45186038013666 0.67767281989926 0.96732382028068 
H12   H     0.04825942987503 0.67768242994339 0.46731851008038 
H13   H     0.53419746040175 0.73477226998138 0.36222290000336 
H14   H     0.96647433015940 0.73486783957119 0.86217194999776 
H15   H     0.64047449021460 0.92381642973359 0.30198805022120 
H16   H     0.85971377001801 0.92384952982016 0.80195197969126 
H17   H     0.72106138946873 0.05751182002536 0.17601996000348 
H18   H     0.77879558058908 0.05747719013664 0.67600042003313 
H19   H     0.48630793046043 0.82444857043690 0.84678050998577 
H20   H     0.01400343941215 0.82449555024565 0.34679420996941 
H21   H     0.71322780994830 0.09517177958942 0.02140397031476 
H22   H     0.78667583033584 0.09514365998289 0.52136497997104 
H23   H     0.62765788003061 0.03238288027665 0.87171797976143 
H24   H     0.87243890937347 0.03238508042516 0.37170493003720 
C1    C     0.59156697955358 0.51146135024516 0.05523183020765 
C2    C     0.90831902052401 0.51148565982497 0.55523044982388 
C3    C     0.54695671973288 0.57886753006970 0.13164140002703 
C4    C     0.95306763020325 0.57888072964114 0.63162407983335 
C5    C     0.56062999052928 0.71252785041292 0.13877592981983 
C6    C     0.93944598994519 0.71254026960443 0.63875853980155 
C7    C     0.57713364059971 0.38362826989769 0.05179820991829 
C8    C     0.92268664941549 0.38364950040807 0.55180895023217 
C9    C     0.50298408975121 0.50787000043088 0.20776021979007 
C10   C     0.99717823001360 0.50790083979903 0.70774220989477 
C11   C     0.57371289933310 0.79666537016282 0.06541471026938 
C12   C     0.92630233967056 0.79666634042325 0.56539307032482 
C13   C     0.56929438979088 0.76453133965506 0.22363998010220 
C14   C     0.93091885001645 0.76456761959174 0.72361386030160 
C15   C     0.51870526969367 0.31577226043332 0.12489313969104 
C16   C     0.98112279975838 0.31579067975919 0.62490119031904 
C17   C     0.48566324048800 0.37767762044284 0.20189440999226 
C18   C     0.01435990963147 0.37769692983613 0.70188350982530 
C19   C     0.63651238064242 0.92113594987893 0.07999018022173 
C20   C     0.86345462946023 0.92112495026692 0.57996978982251 
C21   C     0.48851450989756 0.56764577023375 0.29026501986248 
C22   C     0.01190010039981 0.56770231019815 0.79022760967592 
C23   C     0.51749895021371 0.76631078007139 0.97946366987043 
C24   C     0.98256828977330 0.76630914995715 0.47944490022115 
C25   C     0.52948724959484 0.69056531015216 0.29843077010738 
C26   C     0.97090620933753 0.69062085017833 0.79838845981169 
C27   C     0.62579912032053 0.88999445013459 0.23563408970128 
C28   C     0.87431596021940 0.89001474030208 0.73560415003265 
C29   C     0.66853180931674 0.96394003014014 0.16644554994404 
C30   C     0.83140305007842 0.96392321974887 0.66642497011247 
C31   C     0.53478270984759 0.84974227010768 0.91145307031683 
C32   C     0.96535984023728 0.84975401955610 0.41144297004773 
C33   C     0.65874229957703 0.00292641010881 0.00887130975945 
C34   C     0.84121759956811 0.00290627997219 0.50885104976683 
C35   C     0.61100251991868 0.96790333028637 0.92562740010719 
C36   C     0.88903502026435 0.96789190040377 0.42560284988836 
