data_stdin
_audit_creation_method 'critic2'
_audit_creation_date 2023-8-11
_chemical_formula_sum 'C18 H12'
_cell_formula_units_Z 4
_cell_length_a         8.3170075235
_cell_length_b        15.2624623604
_cell_length_c         9.4139545267
_cell_angle_alpha        89.9996
_cell_angle_beta        80.4153
_cell_angle_gamma        90.0000
_cell_volume          1178.307413
_space_group_crystal_system monoclinic
_space_group_IT_number 14
_space_group_name_H-M_alt 'P2_1/c'
_space_group_name_Hall '-P 2ybc'
loop_
_symmetry_equiv_pos_site_id
_symmetry_equiv_pos_as_xyz
 1 'x,y,z'
 2 '-x,-y,-z'
 3 '-x,-1/2+y,-1/2-z'
 4 'x,-1/2-y,-1/2+z'
loop_
_atom_site_label
_atom_site_type_symbol
_atom_site_fract_x
_atom_site_fract_y
_atom_site_fract_z
H1    H     0.34206746206117 0.92447415653622 0.87135292969420 
H2    H     0.13859551337820 0.00744857897206 0.03481275165195 
H3    H     0.97781568078027 0.93629562501521 0.25154844680116 
H4    H     0.01754587022417 0.77744009099207 0.29372242317822 
H5    H     0.13437923287501 0.63886998780505 0.21825274440010 
H6    H     0.57049390230174 0.91796145376834 0.88201195166402 
H7    H     0.31249133318433 0.54763993657744 0.03774515678402 
H8    H     0.50193933115997 0.53247086848338 0.82248202518884 
H9    H     0.68860165206641 0.59549917333100 0.61401426907681 
H10   H     0.77948202044014 0.97352732058572 0.69205981739606 
H11   H     0.82931194436593 0.71876084613989 0.49460278247116 
H12   H     0.90602631683783 0.87646253055439 0.48998229192590 
C1    C     0.27899596825136 0.89254399611107 0.96763476813386 
C2    C     0.31161949071275 0.80299654223105 0.99260788914744 
C3    C     0.43227058590174 0.75094357470696 0.90015605960539 
C4    C     0.16178769442323 0.93923707182984 0.05856950343320 
C5    C     0.20809293673425 0.76129572791963 0.11044237215136 
C6    C     0.56199213583240 0.78676241581447 0.79372494984107 
C7    C     0.42158605558551 0.65833196545372 0.91359715277274 
C8    C     0.06984128565701 0.89905162353396 0.18036877119789 
C9    C     0.09229643261005 0.81109450846662 0.20427567388652 
C10   C     0.64884508273603 0.72959377854874 0.68652309658711 
C11   C     0.21445092723548 0.66875474408774 0.12797118920435 
C12   C     0.61809475642383 0.87457837400539 0.79360989312851 
C13   C     0.31321901262778 0.61889010540542 0.02941283245321 
C14   C     0.51741099046185 0.60307053185679 0.81025632300378 
C15   C     0.62084977626452 0.63758368924556 0.69632512129024 
C16   C     0.73921760278824 0.90592648328340 0.68683602755320 
C17   C     0.76874373661394 0.76378571280373 0.57612762870257 
C18   C     0.81170467077710 0.85110955284051 0.57395637979190 
