data_stdin
_audit_creation_method 'critic2'
_audit_creation_date 2023-8-11
_chemical_formula_sum 'C18 H12'
_cell_formula_units_Z 4
_cell_length_a        15.2427117243
_cell_length_b         5.7333642752
_cell_length_c        13.5917012927
_cell_angle_alpha        90.0007
_cell_angle_beta        86.4606
_cell_angle_gamma        90.0038
_cell_volume          1185.540592
_space_group_crystal_system monoclinic
_space_group_IT_number 14
_space_group_name_H-M_alt 'P2_1/c'
_space_group_name_Hall '-P 2ybc'
loop_
_symmetry_equiv_pos_site_id
_symmetry_equiv_pos_as_xyz
 1 'x,y,z'
 2 '-x,-y,-z'
 3 '-x,-1/2+y,-1/2-z'
 4 'x,-1/2-y,-1/2+z'
loop_
_atom_site_label
_atom_site_type_symbol
_atom_site_fract_x
_atom_site_fract_y
_atom_site_fract_z
H1    H     0.64467494007799 0.81194385062117 0.61658187966976 
H2    H     0.67275427997882 0.48502620068230 0.50392591027945 
H3    H     0.82601085995781 0.37906333002366 0.44637741977590 
H4    H     0.94972523995441 0.62641974030680 0.49753264963894 
H5    H     0.00598841969108 0.94371045917341 0.58911702031878 
H6    H     0.62498994972557 0.77668352067958 0.74944562032906 
H7    H     0.97994539017670 0.29236678987026 0.69595265014081 
H8    H     0.88632657977015 0.54305963042994 0.79063963034173 
H9    H     0.74408355983722 0.63304580932633 0.87946821029221 
H10   H     0.49254541975855 0.85732705980496 0.85079510990141 
H11   H     0.59917015004606 0.51854897984100 0.93510436010388 
H12   H     0.47669995994578 0.23065707027053 0.94604230968500 
C1    C     0.71212961014990 0.76374059027680 0.59671156987787 
C2    C     0.78128286980536 0.89343725080377 0.63553958969385 
C3    C     0.76873472015649 0.07450047958982 0.70987327025840 
C4    C     0.72776833003269 0.58164415959315 0.53116504965458 
C5    C     0.86841331021190 0.84424258036119 0.59465129998095 
C6    C     0.68841422006404 0.11116766939197 0.77157288020054 
C7    C     0.84103112982826 0.22475185930346 0.72462754985303 
C8    C     0.81415957991614 0.52382057008350 0.49724273994572 
C9    C     0.88270278013228 0.65867323061025 0.52684806027390 
C10   C     0.68024593004840 0.31828032008932 0.83105421002969 
C11   C     0.94033104021081 0.98596978994787 0.62029237020590 
C12   C     0.61877316998436 0.94675966015806 0.78378963999811 
C13   C     0.92617419990210 0.17579236967026 0.67972303973607 
C14   C     0.83037772980924 0.42674752944707 0.78539430033146 
C15   C     0.75194333992767 0.47684217059791 0.83437678992771 
C16   C     0.54390123998166 0.98965534045262 0.84401590007710 
C17   C     0.60272032014700 0.35925154045414 0.89141396015678 
C18   C     0.53490592989208 0.19942427071008 0.89743949021324 
