data_stdin
_audit_creation_method 'critic2'
_audit_creation_date 2023-8-11
_chemical_formula_sum 'C18 H12'
_cell_formula_units_Z 4
_cell_length_a         5.6633145248
_cell_length_b        14.0406375409
_cell_length_c        15.3425441048
_cell_angle_alpha        89.9988
_cell_angle_beta        74.5397
_cell_angle_gamma        90.0005
_cell_volume          1175.841580
_space_group_crystal_system monoclinic
_space_group_IT_number 14
_space_group_name_H-M_alt 'P2_1/c'
_space_group_name_Hall '-P 2ybc'
loop_
_symmetry_equiv_pos_site_id
_symmetry_equiv_pos_as_xyz
 1 'x,y,z'
 2 '-x,-y,-z'
 3 '-x,-1/2+y,-1/2-z'
 4 'x,-1/2-y,-1/2+z'
loop_
_atom_site_label
_atom_site_type_symbol
_atom_site_fract_x
_atom_site_fract_y
_atom_site_fract_z
H1    H     0.38611880107348 0.66698614994107 0.09731741968184 
H2    H     0.75101175944232 0.76623551991015 0.04055601027512 
H3    H     0.99242628023684 0.82317933994892 0.14549309989629 
H4    H     0.84273044961489 0.78873117031350 0.30876369971016 
H5    H     0.53335177048749 0.72571509026017 0.43596476966279 
H6    H     0.42025567072414 0.52702919032613 0.09789933981595 
H7    H     0.14353956979830 0.63870500967098 0.49749309004369 
H8    H     0.80678856078248 0.54709690021951 0.47740833968725 
H9    H     0.59230022968753 0.46089071999990 0.37953497993409 
H10   H     0.22098045102961 0.42700899035093 0.00731062974567 
H11   H     0.58929451039447 0.39733840034740 0.23402904018987 
H12   H     0.79875099043511 0.36551911009457 0.07272904017315 
C1    C     0.49296293939444 0.68803172001708 0.14331264980405 
C2    C     0.41514072920617 0.65946332018248 0.23526027020613 
C3    C     0.21249334982844 0.59496011971053 0.27121240975772 
C4    C     0.69594712947779 0.74583752998405 0.11163883023063 
C5    C     0.53747360952265 0.70254182029340 0.29598014972382 
C6    C     0.10996544936403 0.53122381010816 0.21657196014432 
C7    C     0.10794196039945 0.59405352000327 0.36636962019500 
C8    C     0.83066384934828 0.77900819993074 0.17045621981779 
C9    C     0.74847657978008 0.75910558987389 0.26168136032859 
C10   C     0.87877150983370 0.48624803970665 0.25636400981599 
C11   C     0.43850259087700 0.69183067995671 0.39108663991805 
C12   C     0.23230448972790 0.50461534991693 0.12661197993443 
C13   C     0.22470109001454 0.64346309030431 0.42484360988760 
C14   C     0.88516126946306 0.54385416975037 0.40443232979955 
C15   C     0.76815486921215 0.49548774974983 0.35088578014807 
C16   C     0.12279686923584 0.44613389011251 0.07617370012596 
C17   C     0.76766604052005 0.42865186971236 0.20272752002270 
C18   C     0.88497044017549 0.41036835028150 0.11324816996882 
