data_stdin
_audit_creation_method 'critic2'
_audit_creation_date 2023-8-11
_chemical_formula_sum 'C18 H12'
_cell_formula_units_Z 4
_cell_length_a         9.8418573407
_cell_length_b         7.3423572300
_cell_length_c        17.2585462498
_cell_angle_alpha        90.0000
_cell_angle_beta        71.4730
_cell_angle_gamma        90.0000
_cell_volume          1182.509814
_space_group_crystal_system monoclinic
_space_group_IT_number 14
_space_group_name_H-M_alt 'P2_1/c'
_space_group_name_Hall '-P 2ybc'
loop_
_symmetry_equiv_pos_site_id
_symmetry_equiv_pos_as_xyz
 1 'x,y,z'
 2 '-x,-y,-z'
 3 '-x,-1/2+y,-1/2-z'
 4 'x,-1/2-y,-1/2+z'
loop_
_atom_site_label
_atom_site_type_symbol
_atom_site_fract_x
_atom_site_fract_y
_atom_site_fract_z
H1    H     0.96485017971972 0.54045021017960 0.84852067970135 
H2    H     0.74515805977700 0.49023566980561 0.81409405990213 
H3    H     0.75471524941045 0.43640469965840 0.67035429016718 
H4    H     0.98931478969151 0.45048922999780 0.55985598025112 
H5    H     0.24351119963058 0.51937533021576 0.51390671011775 
H6    H     0.07748356942072 0.34493866966108 0.87777987013444 
H7    H     0.45976404966186 0.62251287018479 0.54585350989537 
H8    H     0.57965906014621 0.70469031066512 0.64029974024648 
H9    H     0.58910025002243 0.73097545934654 0.78131637999849 
H10   H     0.10666988987317 0.33768173055289 0.01300948985862 
H11   H     0.49006935979142 0.66059050934796 0.92500185979119 
H12   H     0.30815234027021 0.50567224062671 0.04012456021529 
C1    C     0.97296640948131 0.51140335995330 0.78561985010736 
C2    C     0.10968438004140 0.51015769945243 0.72496035024456 
C3    C     0.24271433964205 0.53899215006978 0.74240222983543 
C4    C     0.84842763066190 0.48705370936536 0.76612340970450 
C5    C     0.11270707050327 0.49666388022649 0.64144724000135 
C6    C     0.25892399003890 0.52241823977246 0.82277033999847 
C7    C     0.36482513009206 0.59235267004565 0.67670610012419 
C8    C     0.85334630028697 0.45844702026969 0.68470284022992 
C9    C     0.98391090010601 0.46468473950774 0.62361620024211 
C10   C     0.38330304990598 0.59965818952174 0.83655238030367 
C11   C     0.24319971016239 0.52883187966012 0.57700983001444 
C12   C     0.16352886002000 0.42335677012764 0.88818444978683 
C13   C     0.36280219988026 0.58386194948575 0.59449286015486 
C14   C     0.49012019007100 0.65877438019616 0.69200938974934 
C15   C     0.49603127990880 0.67184963962566 0.76972660984529 
C16   C     0.18182903970630 0.41582648018400 0.96444777012048 
C17   C     0.39688191032225 0.59533340932389 0.91575809980047 
C18   C     0.29666593980904 0.50741484998301 0.97945413022978 
