data_stdin
_audit_creation_method 'critic2'
_audit_creation_date 2023-8-11
_chemical_formula_sum 'C18 H12'
_cell_formula_units_Z 8
_cell_length_a        29.1586633730
_cell_length_b         4.0157956341
_cell_length_c        20.5613308240
_cell_angle_alpha        89.9935
_cell_angle_beta        72.0660
_cell_angle_gamma        89.9906
_cell_volume          2290.650770
_space_group_crystal_system monoclinic
_space_group_IT_number 15
_space_group_name_H-M_alt 'C2/c'
_space_group_name_Hall '-C 2yc'
loop_
_symmetry_equiv_pos_site_id
_symmetry_equiv_pos_as_xyz
 1 'x,y,z'
 2 '-1/2-x,-1/2-y,-z'
 3 '-1/2-x,-1/2+y,-1/2-z'
 4 'x,-y,-1/2+z'
 5 '-1/2+x,-1/2+y,z'
 6 '-x,-y,-z'
 7 '-x,y,-1/2-z'
 8 '-1/2+x,-1/2-y,-1/2+z'
loop_
_atom_site_label
_atom_site_type_symbol
_atom_site_fract_x
_atom_site_fract_y
_atom_site_fract_z
H1    H     0.06532391082343 0.29772337580255 0.21172723190143 
H2    H     0.99446288869398 0.51178089683141 0.18684689207151 
H3    H     0.98020759742150 0.38313879000475 0.07603694705617 
H4    H     0.04211451334739 0.06147304363166 0.98809813283588 
H5    H     0.11752725307881 0.77345257434621 0.94960500550213 
H6    H     0.06463630629750 0.91778287006218 0.26112873999793 
H7    H     0.19263150738643 0.57663313251611 0.96971792097606 
H8    H     0.24130084314309 0.49287169214588 0.04063219777750 
H9    H     0.25502978105836 0.50538813776006 0.15364297276711 
H10   H     0.07654984955959 0.85155630509802 0.37139245131682 
H11   H     0.22406320937482 0.56568943306820 0.27502732754534 
H12   H     0.15728132334453 0.69200985870971 0.38111996440473 
C1    C     0.05893133532331 0.22033681053793 0.16481907834423 
C2    C     0.09302067433003 0.01258356733683 0.11830100142267 
C3    C     0.13373496392702 0.85546318673560 0.13263203073607 
C4    C     0.01911281958901 0.34756116932494 0.15027469325820 
C5    C     0.08699015356010 0.97043240862367 0.05211671242984 
C6    C     0.13872000416318 0.81474866192344 0.20040547841504 
C7    C     0.17039451444782 0.71679096827900 0.07655772568619 
C8    C     0.01154519546548 0.28085633667066 0.08722074942137 
C9    C     0.04584680810693 0.10160665879920 0.03859263289003 
C10   C     0.18356800683297 0.69458161624694 0.20681162290985 
C11   C     0.12300445369443 0.80436293587743 0.99933616107575 
C12   C     0.10063222813823 0.85903264813543 0.26235277432745 
C13   C     0.16415920688457 0.69413540568725 0.01054569817223 
C14   C     0.21382909937509 0.59062335049493 0.08530185935441 
C15   C     0.22125422051134 0.59386349364805 0.14760961962371 
C16   C     0.10717606922247 0.81576677994204 0.32564387645188 
C17   C     0.18952346000072 0.65669141845054 0.27218256528162 
C18   C     0.15228904324983 0.72160316750298 0.33108981338051 
