data_stdin
_audit_creation_method 'critic2'
_audit_creation_date 2023-8-11
_chemical_formula_sum 'C18 H12'
_cell_formula_units_Z 4
_cell_length_a        14.4312096602
_cell_length_b         9.0339226000
_cell_length_c        10.1027465951
_cell_angle_alpha        89.9999
_cell_angle_beta       107.6070
_cell_angle_gamma        90.0001
_cell_volume          1255.398396
_space_group_crystal_system monoclinic
_space_group_IT_number 14
_space_group_name_H-M_alt 'P2_1/c'
_space_group_name_Hall '-P 2ybc'
loop_
_symmetry_equiv_pos_site_id
_symmetry_equiv_pos_as_xyz
 1 'x,y,z'
 2 '-x,-y,-z'
 3 '-x,-1/2+y,-1/2-z'
 4 'x,-1/2-y,-1/2+z'
loop_
_atom_site_label
_atom_site_type_symbol
_atom_site_fract_x
_atom_site_fract_y
_atom_site_fract_z
H1    H     0.85875754022760 0.68875958018439 0.55672478988518 
H2    H     0.88949972030538 0.94600506004602 0.63252374036706 
H3    H     0.79457777986306 0.06593733977795 0.77208840957318 
H4    H     0.66180038973023 0.92600522009197 0.82390662004535 
H5    H     0.55887342000877 0.70828992974661 0.79447816967554 
H6    H     0.92771672012556 0.51903644015577 0.66745672990345 
H7    H     0.50978614000780 0.46327242045067 0.68755237014830 
H8    H     0.53450964979583 0.25413391992052 0.55627565023287 
H9    H     0.63524499012222 0.11131382946906 0.44144269988239 
H10   H     0.03052188982921 0.35802915956816 0.57872036051163 
H11   H     0.78635319016565 0.07511983043346 0.39085853047258 
H12   H     0.95941187034871 0.14131778946102 0.42690499026701 
C1    C     0.81891678967874 0.73591067998348 0.62200547961452 
C2    C     0.74741320020665 0.64941037999718 0.65645571991884 
C3    C     0.72749472991927 0.49573340993844 0.61606640028882 
C4    C     0.83518783000704 0.88219115050658 0.66264801988240 
C5    C     0.68711886028687 0.72398849959740 0.72541375017033 
C6    C     0.79326421999355 0.39999200944994 0.57172683980112 
C7    C     0.63720284982264 0.43514747957590 0.61882418979583 
C8    C     0.78070276988994 0.95107366023529 0.73975044010568 
C9    C     0.70699211008617 0.87281008961727 0.76869800010716 
C10   C     0.75652489007559 0.26427436989870 0.50164276022872 
C11   C     0.60387486970566 0.65055093954296 0.74180254986862 
C12   C     0.89434715000255 0.42679347053009 0.60113000977919 
C13   C     0.57732534019084 0.51443539945684 0.68395906953836 
C14   C     0.60561755974916 0.29478872983302 0.55650873970063 
C15   C     0.66093639973459 0.21570586016063 0.49343410017142 
C16   C     0.95312507975399 0.33451524960042 0.55190839028599 
C17   C     0.81709702008474 0.17495090962420 0.44752744955255 
C18   C     0.91367936002938 0.21070691960533 0.46956295047512 
