data_stdin
_audit_creation_method 'critic2'
_audit_creation_date 2023-8-11
_chemical_formula_sum 'C18 H12'
_cell_formula_units_Z 4
_cell_length_a        18.0889978422
_cell_length_b        15.9742518335
_cell_length_c         4.0540290937
_cell_angle_alpha        90.0007
_cell_angle_beta        89.9923
_cell_angle_gamma        90.0013
_cell_volume          1171.444967
_space_group_crystal_system orthorhombic
_space_group_IT_number 33
_space_group_name_H-M_alt 'Pna2_1'
_space_group_name_Hall 'P 2c -2n'
loop_
_symmetry_equiv_pos_site_id
_symmetry_equiv_pos_as_xyz
 1 'x,y,z'
 2 '-x,-y,-1/2+z'
 3 '-1/2-x,-1/2+y,-1/2+z'
 4 '-1/2+x,-1/2-y,z'
loop_
_atom_site_label
_atom_site_type_symbol
_atom_site_fract_x
_atom_site_fract_y
_atom_site_fract_z
H1    H     0.29037149000810 0.20505939003536 0.98838051924680 
H2    H     0.40823607007089 0.23522743981589 0.71912396095625 
H3    H     0.48603839982784 0.11907375020023 0.49403363878970 
H4    H     0.44555185975183 0.97234171017324 0.57017951053941 
H5    H     0.35999946991085 0.87031472986653 0.79304987889612 
H6    H     0.19985100996675 0.20458125022028 0.73881034991792 
H7    H     0.24763084988172 0.83746083022643 0.11612087063555 
H8    H     0.13850231982612 0.87859195030469 0.39848300893831 
H9    H     0.04223442984830 0.98368927030840 0.52732430050999 
H10   H     0.09622743989873 0.29930043014062 0.81468079934784 
H11   H     0.98910287980256 0.11938080976223 0.44337588929443 
H12   H     0.99011865019420 0.25990569975265 0.17851191924374 
C1    C     0.32111428004601 0.15383698004560 0.87836681877658 
C2    C     0.29326295004740 0.07103090971785 0.90331014032873 
C3    C     0.22128042016047 0.04996987001671 0.03834757938523 
C4    C     0.38879902006159 0.17079164002806 0.73386890098881 
C5    C     0.34202299025507 0.00475246023229 0.80437176043993 
C6    C     0.16035840991512 0.10844358997306 0.07306928070308 
C7    C     0.20889621019554 0.96557513975623 0.13430783042105 
C8    C     0.43328620003097 0.10547730983223 0.61178471066070 
C9    C     0.41040720012210 0.02371963978875 0.65215296080854 
C10   C     0.09599347025768 0.08346308023142 0.25530367935625 
C11   C     0.32295896974510 0.92001257001586 0.87333157033655 
C12   C     0.15701175989365 0.18736829974022 0.91302996062181 
C13   C     0.26051645016270 0.90180570981623 0.04773879097517 
C14   C     0.14397395019877 0.94301035023037 0.31310744957702 
C15   C     0.09069290981306 0.00069290975150 0.38332739088132 
C16   C     0.09718035027034 0.24044452008346 0.95002698922647 
C17   C     0.03612861012447 0.13957381026972 0.29521204999492 
C18   C     0.03673943020591 0.21753102012941 0.14894670903477 
