data_stdin
_audit_creation_method 'critic2'
_audit_creation_date 2023-8-11
_chemical_formula_sum 'C18 H12'
_cell_formula_units_Z 4
_cell_length_a         8.0269227200
_cell_length_b         7.9815190207
_cell_length_c        19.5940249131
_cell_angle_alpha        89.9992
_cell_angle_beta        70.3136
_cell_angle_gamma        89.9999
_cell_volume          1181.957937
_space_group_crystal_system monoclinic
_space_group_IT_number 14
_space_group_name_H-M_alt 'P2_1/c'
_space_group_name_Hall '-P 2ybc'
loop_
_symmetry_equiv_pos_site_id
_symmetry_equiv_pos_as_xyz
 1 'x,y,z'
 2 '-x,-y,-z'
 3 '-x,-1/2+y,-1/2-z'
 4 'x,-1/2-y,-1/2+z'
loop_
_atom_site_label
_atom_site_type_symbol
_atom_site_fract_x
_atom_site_fract_y
_atom_site_fract_z
H1    H     0.37425881036698 0.38046337028976 0.47339503013794 
H2    H     0.12217402002385 0.31709220024664 0.58174857006828 
H3    H     0.90790845030517 0.54144286978868 0.64367190999272 
H4    H     0.96364173995650 0.83456457024555 0.59896915019820 
H5    H     0.15693374027896 0.04331312016733 0.52094691984745 
H6    H     0.35153025948410 0.37265959008796 0.37442161008310 
H7    H     0.44409570029181 0.11333687968743 0.42661858982548 
H8    H     0.71753994934098 0.03159323054186 0.33728985024564 
H9    H     0.90598256999553 0.81720577981593 0.25485048992337 
H10   H     0.51390537974710 0.18246354980891 0.27714009007487 
H11   H     0.93536825950889 0.54177468005678 0.20147464026971 
H12   H     0.81099328937909 0.26129807988543 0.19083435011251 
C1    C     0.27997474072536 0.47906590022725 0.49779374985083 
C2    C     0.31113916037414 0.64310784979035 0.46852575003084 
C3    C     0.45782111972945 0.68596339023838 0.40395782977463 
C4    C     0.13889300946342 0.44359087981649 0.55973385000825 
C5    C     0.19888766042919 0.77437303059285 0.50910603018056 
C6    C     0.55185805011469 0.56700115981954 0.34847471986816 
C7    C     0.51158223035754 0.85626594968382 0.39413651000141 
C8    C     0.02034698952367 0.57072134053127 0.59553338009212 
C9    C     0.05125513977671 0.73364744977533 0.57072207983669 
C10   C     0.71614874067959 0.61628283046247 0.29514089984631 
C11   C     0.24417442041918 0.94502895973845 0.48998860992443 
C12   C     0.48282027002064 0.40830352947701 0.33921438987097 
C13   C     0.40088417981375 0.98380788023240 0.43743462988659 
C14   C     0.67606743973852 0.90095711002752 0.34050789997866 
C15   C     0.77887864050296 0.78352700968785 0.29468863999057 
C16   C     0.57358113013001 0.30110643055879 0.28361387002497 
C17   C     0.80928800930588 0.50200805012038 0.24038780024272 
C18   C     0.74029393973883 0.34629447964619 0.23446125016448 
