data_stdin
_audit_creation_method 'critic2'
_audit_creation_date 2023-8-11
_chemical_formula_sum 'C18 H12'
_cell_formula_units_Z 4
_cell_length_a        12.4789224497
_cell_length_b        10.5904964413
_cell_length_c         9.3294112101
_cell_angle_alpha        90.0015
_cell_angle_beta        78.3885
_cell_angle_gamma        89.9998
_cell_volume          1207.723533
_space_group_crystal_system monoclinic
_space_group_IT_number 14
_space_group_name_H-M_alt 'P2_1/c'
_space_group_name_Hall '-P 2ybc'
loop_
_symmetry_equiv_pos_site_id
_symmetry_equiv_pos_as_xyz
 1 'x,y,z'
 2 '-x,-y,-z'
 3 '-x,-1/2+y,-1/2-z'
 4 'x,-1/2-y,-1/2+z'
loop_
_atom_site_label
_atom_site_type_symbol
_atom_site_fract_x
_atom_site_fract_y
_atom_site_fract_z
H1    H     0.06703010982938 0.56864357980607 0.45338175026393 
H2    H     0.92675889973871 0.65847987045256 0.33585193000158 
H3    H     0.93244667988152 0.88668068039708 0.26603633010547 
H4    H     0.07061396033681 0.02607367005373 0.34275336981934 
H5    H     0.21843435009554 0.05938155028575 0.46794313042673 
H6    H     0.20173044037226 0.49810148997467 0.34200565982152 
H7    H     0.34787182037335 0.97583305007872 0.61592690006844 
H8    H     0.42609504026573 0.80609729971606 0.72497217992183 
H9    H     0.45660719027148 0.57765471956537 0.75695251968600 
H10   H     0.25077058032283 0.27585739043913 0.35402473972589 
H11   H     0.43020824987938 0.36084622956336 0.69012370965892 
H12   H     0.36055011002927 0.20273075971637 0.53579812960331 
C1    C     0.07323521987373 0.66727652017308 0.42145606020742 
C2    C     0.15937280964686 0.74188978041205 0.45485521990417 
C3    C     0.24739993017983 0.69262215991901 0.51898472976985 
C4    C     0.99305784018049 0.71829812038657 0.35588363972946 
C5    C     0.15320362012301 0.87528714029669 0.43160603007876 
C6    C     0.27764131960836 0.56032176980149 0.51921922016641 
C7    C     0.30899655963462 0.77980522025265 0.58533177976613 
C8    C     0.99459283986604 0.84737055987385 0.31986924037698 
C9    C     0.07249578007228 0.92458583972189 0.36027229993411 
C10   C     0.35070231029046 0.51945896024083 0.61076522998688 
C11   C     0.22511654993447 0.95843168973658 0.48654176958416 
C12   C     0.24616682001000 0.46846799044907 0.42485221963799 
C13   C     0.29672732017188 0.91237025965240 0.56664112045281 
C14   C     0.38425013974030 0.73599673008914 0.67079009967278 
C15   C     0.40117348968550 0.61026296992314 0.68836145036722 
C16   C     0.27546772964713 0.34272450953751 0.43000057024251 
C17   C     0.37635759020665 0.38976891979094 0.61759354988481 
C18   C     0.33823222962426 0.30178815977180 0.53071993017898 
