data_stdin
_audit_creation_method 'critic2'
_audit_creation_date 2023-8-11
_chemical_formula_sum 'C18 H12'
_cell_formula_units_Z 8
_cell_length_a        14.7758455428
_cell_length_b         5.5898709333
_cell_length_c        28.8942728656
_cell_angle_alpha        89.9941
_cell_angle_beta        83.6165
_cell_angle_gamma        89.9868
_cell_volume          2371.727944
_space_group_crystal_system triclinic
_space_group_IT_number 2
_space_group_name_H-M_alt 'P-1'
_space_group_name_Hall '-P 1'
loop_
_symmetry_equiv_pos_site_id
_symmetry_equiv_pos_as_xyz
 1 'x,y,z'
 2 '-x,-y,-z'
 3 '-1/2+x,-1/2+y,z'
 4 '-1/2-x,-1/2-y,-z'
loop_
_atom_site_label
_atom_site_type_symbol
_atom_site_fract_x
_atom_site_fract_y
_atom_site_fract_z
H1    H     0.41920968001664 0.37457263019598 0.65978656013473 
H2    H     0.58085621980232 0.37421195074598 0.84020427988822 
H3    H     0.48872952991258 0.08608040947535 0.70869337995432 
H4    H     0.51145210972981 0.08572184998730 0.79127891990311 
H5    H     0.40165862966126 0.72682541940277 0.74027403003908 
H6    H     0.59865507985746 0.72658968914483 0.75969342987439 
H7    H     0.24070806010149 0.67854206994769 0.72538483988313 
H8    H     0.75960967018026 0.67847383966130 0.77459291999933 
H9    H     0.10623361017634 0.83073436982851 0.69599984984984 
H10   H     0.89403376992752 0.83080065956690 0.80398444999733 
H11   H     0.43151731998277 0.34345093913627 0.59182920008549 
H12   H     0.56856700015653 0.34300609932265 0.90816070983092 
H13   H     0.02843681016579 0.14585848918786 0.65379506987937 
H14   H     0.97171124987555 0.14593223964140 0.84620689996530 
H15   H     0.03131257991748 0.49146524044275 0.60711887991436 
H16   H     0.96871352999911 0.49154152021318 0.89288005012821 
H17   H     0.11433091030603 0.82313784088803 0.56343224990141 
H18   H     0.88557159993580 0.82313308066693 0.93655265007908 
H19   H     0.50943784022885 0.64855735990689 0.54149772984648 
H20   H     0.49052992011855 0.64803429927960 0.95848348003582 
H21   H     0.25497145978825 0.00867941953684 0.53224235986214 
H22   H     0.74486561974113 0.00847080959035 0.96774199997892 
H23   H     0.42273767005834 0.99723057949701 0.51419973014507 
H24   H     0.57710323012470 0.99678371911578 0.98578181009944 
C1    C     0.38113633993702 0.21599534963999 0.67153015008907 
C2    C     0.61899058977037 0.21570133046796 0.82845463008922 
C3    C     0.29165488992637 0.18395830933097 0.65920322999882 
C4    C     0.70848321014931 0.18376082043223 0.84078473015195 
C5    C     0.24909525030985 0.34139510981685 0.62809737004378 
C6    C     0.75098550004746 0.34121297945339 0.87189450998675 
C7    C     0.41977824986109 0.05554474046353 0.70009126987782 
C8    C     0.58041108017656 0.05525374938456 0.79988553014660 
C9    C     0.23946861011077 0.99212044025916 0.68180504988264 
C10   C     0.76073854988832 0.99200778016715 0.81817834990186 
C11   C     0.29795281987556 0.50871544993855 0.59604655005820 
C12   C     0.70206683022837 0.50845936084874 0.90394422000162 
C13   C     0.15278105967808 0.33131479923297 0.62913106994184 
C14   C     0.84730296021634 0.33124950993474 0.87086518986066 
C15   C     0.37081547972693 0.85405382088786 0.71820516006388 
C16   C     0.62944656017103 0.85383291978524 0.78176710013231 
C17   C     0.28125682022576 0.82629654951956 0.70973929986649 
C18   C     0.71901127010930 0.82617456069666 0.79023933997022 
C19   C     0.24777806976600 0.69080594081491 0.57487816016996 
C20   C     0.75217604017392 0.69060916912381 0.92510916996730 
C21   C     0.14427650999513 0.97718665038066 0.67824976997970 
C22   C     0.85593508996800 0.97718146990336 0.82173848992458 
C23   C     0.39280518012680 0.49555059944860 0.58146222014262 
C24   C     0.60721994971533 0.49515936977317 0.91852581009873 
C25   C     0.10192114004190 0.14806588912562 0.65468165994383 
C26   C     0.89822786002653 0.14806822998182 0.84531383013695 
C27   C     0.10525012997188 0.50402651936510 0.60460863006096 
C28   C     0.89477149005737 0.50400551000980 0.89538627994907 
C29   C     0.15079340020501 0.68483488957060 0.58035159010430 
C30   C     0.84916269016959 0.68476889007007 0.91963804002574 
C31   C     0.43671651972788 0.66615150950637 0.55232896993114 
C32   C     0.56324586981505 0.66570947050650 0.94765569987540 
C33   C     0.29457299023129 0.86809669036486 0.54663553005410 
C34   C     0.70531732976392 0.86783898075157 0.95335011988723 
C35   C     0.38797411968951 0.85999614026199 0.53620750003022 
C36   C     0.61191890992351 0.85960192931004 0.96377512005258 
