data_stdin
_audit_creation_method 'critic2'
_audit_creation_date 2023-8-11
_chemical_formula_sum 'C18 H12'
_cell_formula_units_Z 8
_cell_length_a        30.4182640590
_cell_length_b         5.7593780605
_cell_length_c        13.8148931782
_cell_angle_alpha        90.0036
_cell_angle_beta        90.9501
_cell_angle_gamma        89.9959
_cell_volume          2419.902319
_space_group_crystal_system monoclinic
_space_group_IT_number 15
_space_group_name_H-M_alt 'C2/c'
_space_group_name_Hall '-C 2yc'
loop_
_symmetry_equiv_pos_site_id
_symmetry_equiv_pos_as_xyz
 1 'x,y,z'
 2 '-x,-y,-z'
 3 '-x,y,-1/2-z'
 4 'x,-y,-1/2+z'
 5 '-1/2+x,-1/2+y,z'
 6 '-1/2-x,-1/2-y,-z'
 7 '-1/2-x,-1/2+y,-1/2-z'
 8 '-1/2+x,-1/2-y,-1/2+z'
loop_
_atom_site_label
_atom_site_type_symbol
_atom_site_fract_x
_atom_site_fract_y
_atom_site_fract_z
H1    H     0.43428482009750 0.91081555083899 0.36187066972863 
H2    H     0.42365926015311 0.24100697974143 0.25217757982761 
H3    H     0.34821912016211 0.37745741030492 0.20779615978525 
H4    H     0.28360638007628 0.15239324936488 0.26513039995666 
H5    H     0.25249323989429 0.83372249079387 0.35308588030050 
H6    H     0.44008532983979 0.96367381997727 0.50015428023688 
H7    H     0.26203538016079 0.48160675002113 0.45405786025663 
H8    H     0.30663572014119 0.22234010085308 0.54757871034580 
H9    H     0.37733295993029 0.11328708966878 0.62516454985493 
H10   H     0.50732486000749 0.86658876032470 0.58971138033813 
H11   H     0.45285610994469 0.20415199973505 0.66611636979117 
H12   H     0.51649929999176 0.47856184000147 0.66707840979969 
C1    C     0.40112387005705 0.97143512038441 0.34641693964878 
C2    C     0.36508872997676 0.85420177991983 0.38838349027795 
C3    C     0.36924594005410 0.67313218951988 0.46098786001632 
C4    C     0.39520311986347 0.15538521024971 0.28302560966799 
C5    C     0.32210372988151 0.91603940920870 0.35254617983941 
C6    C     0.40870106001688 0.62910889045561 0.51859392024877 
C7    C     0.33193546000480 0.53139615963263 0.47821513984971 
C8    C     0.35260208997765 0.22938692917565 0.25595028966371 
C9    C     0.31685923997848 0.10620916983761 0.28852103990670 
C10   C     0.41184868013906 0.41935231023109 0.57450151996346 
C11   C     0.28494833016425 0.78207789060390 0.37982306001006 
C12   C     0.44361386997008 0.79049260944055 0.52999134987543 
C13   C     0.29016842002126 0.58985049037434 0.43660604029528 
C14   C     0.33563850984986 0.33059512002261 0.53831700982827 
C15   C     0.37463019013189 0.27027035979322 0.58162865984821 
C16   C     0.48131623994113 0.73778329985383 0.58285206970223 
C17   C     0.45117745988990 0.36752780940493 0.62645751024720 
C18   C     0.48610787011550 0.52072068984025 0.62836426981169 
