data_stdin
_audit_creation_method 'critic2'
_audit_creation_date 2023-8-11
_chemical_formula_sum 'C18 H12'
_cell_formula_units_Z 4
_cell_length_a         3.8783808759
_cell_length_b        14.9981986037
_cell_length_c        20.1679424219
_cell_angle_alpha        90.0039
_cell_angle_beta        90.0091
_cell_angle_gamma        89.9979
_cell_volume          1173.143511
_space_group_crystal_system orthorhombic
_space_group_IT_number 19
_space_group_name_H-M_alt 'P2_12_12_1'
_space_group_name_Hall 'P 2ac 2ab'
loop_
_symmetry_equiv_pos_site_id
_symmetry_equiv_pos_as_xyz
 1 'x,y,z'
 2 '-1/2-x,-y,-1/2+z'
 3 '-1/2+x,-1/2-y,-z'
 4 '-x,-1/2+y,-1/2-z'
loop_
_atom_site_label
_atom_site_type_symbol
_atom_site_fract_x
_atom_site_fract_y
_atom_site_fract_z
H1    H     0.61706017948699 0.32759569007969 0.54065200020664 
H2    H     0.41494691093343 0.18595485013262 0.58605500984867 
H3    H     0.11478382102866 0.18080840990543 0.69558511982663 
H4    H     0.06552754050690 0.31936990981049 0.76236210998205 
H5    H     0.19017775916788 0.47486969988359 0.77910319975870 
H6    H     0.31837427127307 0.40135905023691 0.48474493983261 
H7    H     0.45438669124350 0.61622957012345 0.74040988981839 
H8    H     0.74593251021048 0.70175195003553 0.65852452982650 
H9    H     0.94623553099942 0.72469039999857 0.54305829979915 
H10   H     0.44057266018924 0.43626508005786 0.36950675004710 
H11   H     0.94763726012709 0.67873751025078 0.42839440979560 
H12   H     0.77907940084094 0.57297262009704 0.33943011020563 
C1    C     0.47720297949732 0.32797474022877 0.58725169984297 
C2    C     0.42778925084361 0.40956860987677 0.62158612003447 
C3    C     0.52625744056395 0.49613186978691 0.59569120005746 
C4    C     0.37019272006105 0.24739571025031 0.61352423976064 
C5    C     0.29420115958501 0.40379824968587 0.68778194014334 
C6    C     0.58868806963641 0.51495788991830 0.52622044023802 
C7    C     0.55869971102477 0.56775674014504 0.64129947024644 
C8    C     0.20802234932135 0.24394196983681 0.67590396992028 
C9    C     0.17774555966781 0.32098975997139 0.71281225007866 
C10   C     0.74760917891062 0.59781346987732 0.50797578023998 
C11   C     0.29409311919744 0.48071874991240 0.72920371982024 
C12   C     0.47546108057796 0.45932154032606 0.47371568975614 
C13   C     0.43761070127945 0.55854750013186 0.70770520992788 
C14   C     0.71118620046563 0.64996262998925 0.62119416022265 
C15   C     0.81806362998565 0.66308562025769 0.55749054006010 
C16   C     0.53961343104077 0.48012666978165 0.40807611977750 
C17   C     0.81782813979125 0.61646265003459 0.44054778996409 
C18   C     0.72099182888562 0.55806173024044 0.39108230990471 
