data_stdin
_audit_creation_method 'critic2'
_audit_creation_date 2023-8-11
_chemical_formula_sum 'C18 H12'
_cell_formula_units_Z 4
_cell_length_a        19.9527787610
_cell_length_b         8.2081834138
_cell_length_c         7.1926351500
_cell_angle_alpha        90.0005
_cell_angle_beta        90.0087
_cell_angle_gamma        89.9998
_cell_volume          1177.981488
_space_group_crystal_system monoclinic
_space_group_IT_number 7
_space_group_name_H-M_alt 'Pc'
_space_group_name_Hall 'P -2yc'
loop_
_symmetry_equiv_pos_site_id
_symmetry_equiv_pos_as_xyz
 1 'x,y,z'
 2 '-1/2+x,-1/2-y,z'
loop_
_atom_site_label
_atom_site_type_symbol
_atom_site_fract_x
_atom_site_fract_y
_atom_site_fract_z
H1    H     0.27545583241502 0.64547918372772 0.02448461617068 
H2    H     0.72452060932406 0.35453648929888 0.52473949025915 
H3    H     0.38715573133341 0.76711902108763 0.03225192647423 
H4    H     0.61282422102741 0.23289025718869 0.53232646235192 
H5    H     0.48688285510094 0.60828052106943 0.91969028239974 
H6    H     0.51312438122816 0.39156612687507 0.41920621291154 
H7    H     0.47223442973061 0.32246471902884 0.81948027260734 
H8    H     0.52778406461662 0.67728963781469 0.31872752276799 
H9    H     0.40382430498868 0.07757173491524 0.79974610984191 
H10   H     0.59618079849765 0.92223854446672 0.29914939500782 
H11   H     0.21357323857634 0.64622282770331 0.79319534696813 
H12   H     0.78645937177523 0.35358001507427 0.29369367652892 
H13   H     0.29646957509379 0.93784266792942 0.86522405653981 
H14   H     0.70349222590269 0.06205253864674 0.36498388533108 
H15   H     0.18181872574249 0.94412869404762 0.96872277472568 
H16   H     0.81810241437431 0.05586910445706 0.46889896968143 
H17   H     0.07687845217791 0.09487950868946 0.03112522187193 
H18   H     0.92308262591099 0.90522646848456 0.53129969207192 
H19   H     0.10407102052619 0.77981884003474 0.79210604249158 
H20   H     0.89598500322134 0.22013488948030 0.29266957948790 
H21   H     0.01300028345162 0.34781340697426 0.01790112404682 
H22   H     0.98702709204721 0.65251249259889 0.51771406431222 
H23   H     0.00293959979700 0.63425056581284 0.91750418590022 
H24   H     0.99712943535504 0.36600551245634 0.41757295967148 
C1    C     0.31762851694833 0.57566955822735 0.97207269854706 
C2    C     0.68236236420391 0.42428762209101 0.47210524425398 
C3    C     0.30725875971622 0.41272779773548 0.91287107406295 
C4    C     0.69274016963038 0.58718095654319 0.41276589421498 
C5    C     0.24230973248399 0.33365772607406 0.91335346880861 
C6    C     0.75768591222056 0.66628221391844 0.41337919810985 
C7    C     0.38098656995106 0.64402460480948 0.97821208424875 
C8    C     0.61900388378699 0.35592470530424 0.47813477703217 
C9    C     0.36547154844899 0.31813704966640 0.86745242307241 
C10   C     0.63453282751147 0.68171328256518 0.36708431635570 
C11   C     0.17871009824354 0.41895282358243 0.91280123178865 
C12   C     0.82129626964863 0.58103171854733 0.41296703216315 
C13   C     0.24096197181745 0.16064164665530 0.91565581636551 
C14   C     0.75901284892254 0.83930258102830 0.41562295761667 
C15   C     0.43710192053700 0.55401984678332 0.91873051657534 
C16   C     0.56290184663291 0.44584767870485 0.41836116733921 
C17   C     0.42910795214149 0.39413640282718 0.86319117073405 
C18   C     0.57090271033482 0.60568360753401 0.36267034609468 
C19   C     0.11917282168324 0.33095495123695 0.96203105144920 
C20   C     0.88082783663544 0.66912168118299 0.46211873675406 
C21   C     0.35957608835609 0.14670223566874 0.83992438414466 
C22   C     0.64042103172720 0.85314165259793 0.33950152085141 
C23   C     0.17072130949838 0.58179455223957 0.85036736192822 
C24   C     0.82930753047335 0.41813807022387 0.35072825684613 
C25   C     0.30015147930340 0.07003672919513 0.87392056871255 
C26   C     0.69982410214594 0.92985530122488 0.37368556302506 
C27   C     0.18034743326247 0.07640597409141 0.95829047231105 
C28   C     0.81960547307042 0.92360028450062 0.45838917829334 
C29   C     0.12223540914223 0.15928966745981 0.99068210073587 
C30   C     0.87773473072504 0.84077935319417 0.49079951987480 
C31   C     0.10862501854464 0.65704051529040 0.84826129524773 
C32   C     0.89141990543561 0.34297317796841 0.34864589782132 
C33   C     0.05707017567269 0.41398021298498 0.97034301718039 
C34   C     0.94295720963791 0.58621555241776 0.47035497380133 
C35   C     0.05158847912948 0.57439975685931 0.91459879860204 
C36   C     0.94846153993856 0.42576409060616 0.41474955323201 
