data_stdin
_audit_creation_method 'critic2'
_audit_creation_date 2023-8-11
_chemical_formula_sum 'C18 H12'
_cell_formula_units_Z 2
_cell_length_a         5.8088424393
_cell_length_b        13.7306731039
_cell_length_c         9.6974725704
_cell_angle_alpha        82.3697
_cell_angle_beta        88.4238
_cell_angle_gamma        50.9115
_cell_volume           593.435556
_space_group_crystal_system triclinic
_space_group_IT_number 2
_space_group_name_H-M_alt 'P-1'
_space_group_name_Hall '-P 1'
loop_
_symmetry_equiv_pos_site_id
_symmetry_equiv_pos_as_xyz
 1 'x,y,z'
 2 '-x,-y,-z'
loop_
_atom_site_label
_atom_site_type_symbol
_atom_site_fract_x
_atom_site_fract_y
_atom_site_fract_z
H1    H     0.74195910985608 0.44746944032161 0.51204197043603 
H2    H     0.91328138960918 0.53658983043749 0.63357280967459 
H3    H     0.20681522919234 0.42715557050011 0.86397181982554 
H4    H     0.28515592090494 0.23344953972105 0.97764148028778 
H5    H     0.20018273988980 0.08256575962034 0.98316127009498 
H6    H     0.97591488944714 0.32937524982002 0.38211060980974 
H7    H     0.96837812897531 0.00579899021765 0.87516346007639 
H8    H     0.69228259866455 0.01611582037902 0.68961544017649 
H9    H     0.48361636041275 0.08825373029102 0.44373761010001 
H10   H     0.83948387977520 0.36879369969716 0.13326356025816 
H11   H     0.44581363081148 0.18844812992042 0.21365720017474 
H12   H     0.56452653001575 0.30290886978786 0.04545677029503 
C1    C     0.87401120097966 0.39519801956684 0.61030490016416 
C2    C     0.93092245080776 0.28068536970540 0.66716753013849 
C3    C     0.84306935977702 0.22068370022776 0.59668878949434 
C4    C     0.96930949077296 0.44687374960331 0.68004901028980 
C5    C     0.06932833995493 0.22660092995497 0.80635495981211 
C6    C     0.76734815931901 0.24595897021086 0.44784514961321 
C7    C     0.83583023075092 0.12899604995166 0.67851799997082 
C8    C     0.12797547106546 0.38682479952106 0.81125508025198 
C9    C     0.17259491114720 0.27923367973802 0.87378133993740 
C10   C     0.63006363035561 0.19946353971781 0.39474706988054 
C11   C     0.09172668972047 0.12303059043104 0.87799649960860 
C12   C     0.84480742131059 0.30463659945666 0.34805162036889 
C13   C     0.96517781062699 0.08061969019413 0.81850189015839 
C14   C     0.70332032031420 0.08270574011841 0.62157089008914 
C15   C     0.59116210956848 0.12126815021497 0.48611099018533 
C16   C     0.77301805027622 0.32479480962041 0.20670971965619 
C17   C     0.55194676036270 0.22426892999073 0.25004356042567 
C18   C     0.61890936980141 0.28704239041326 0.15685401990702 
