data_stdin
_audit_creation_method 'critic2'
_audit_creation_date 2023-8-11
_chemical_formula_sum 'C18 H12'
_cell_formula_units_Z 8
_cell_length_a        16.7703616200
_cell_length_b        15.6159827900
_cell_length_c         9.0538237616
_cell_angle_alpha        90.0012
_cell_angle_beta        90.0001
_cell_angle_gamma        90.0001
_cell_volume          2371.066778
_space_group_crystal_system orthorhombic
_space_group_IT_number 20
_space_group_name_H-M_alt 'C222_1'
_space_group_name_Hall 'C 2c 2'
loop_
_symmetry_equiv_pos_site_id
_symmetry_equiv_pos_as_xyz
 1 'x,y,z'
 2 '-1/2-x,-1/2-y,-1/2+z'
 3 '-1/2-x,-1/2+y,-1/2-z'
 4 'x,-y,-z'
 5 '-1/2+x,-1/2+y,z'
 6 '-x,-y,-1/2+z'
 7 '-x,y,-1/2-z'
 8 '-1/2+x,-1/2-y,-z'
loop_
_atom_site_label
_atom_site_type_symbol
_atom_site_fract_x
_atom_site_fract_y
_atom_site_fract_z
H1    H     0.01251255026389 0.91735793000085 0.91071681987416 
H2    H     0.90730884007912 0.95315647999165 0.08793903015022 
H3    H     0.84548250021617 0.84004189004363 0.24363552949260 
H4    H     0.88606099985834 0.68885694022998 0.20980838975539 
H5    H     0.96272758024058 0.58106079984847 0.08582010031967 
H6    H     0.12398639970328 0.92249697025029 0.96310344012434 
H7    H     0.05951204020650 0.53956293973795 0.88991498950903 
H8    H     0.14978048024618 0.57517446011227 0.69864310961681 
H9    H     0.23127369021212 0.68072530001129 0.55938689970728 
H10   H     0.21823639014706 0.02018157025948 0.84456505040738 
H11   H     0.28367735987975 0.82357873984522 0.53475258994481 
H12   H     0.29554726985181 0.97371405013994 0.62242116048450 
C1    C     0.98969934028804 0.86744645973638 0.98265863959351 
C2    C     0.01926404984212 0.78254771986237 0.96916754030271 
C3    C     0.08497095011719 0.75799190969411 0.87378776991257 
C4    C     0.92904474991346 0.88762650019833 0.08020800985867 
C5    C     0.97761543998970 0.71723699996800 0.04950559026773 
C6    C     0.14248375017988 0.81711572023405 0.81098088980929 
C7    C     0.09421422007457 0.66973797017340 0.83970201964209 
C8    C     0.89317855994977 0.82376088989183 0.16722149967598 
C9    C     0.91604278025931 0.73966734982945 0.14890755038627 
C10   C     0.19391267982659 0.78839744030811 0.69432044037886 
C11   C     0.99566638994380 0.62937524017756 0.02381185956805 
C12   C     0.15537530972195 0.90138508021920 0.86479625028239 
C13   C     0.04930827014007 0.60661708013580 0.91739864051251 
C14   C     0.14805106996641 0.64296980021074 0.72673973003669 
C15   C     0.19346555022296 0.70067138990801 0.65107175964900 
C16   C     0.20966650990847 0.95625913017286 0.79920641965628 
C17   C     0.24720557975719 0.84643925968027 0.62615553995117 
C18   C     0.25434406024810 0.92965700983829 0.67580803023177 
