data_stdin
_audit_creation_method 'critic2'
_audit_creation_date 2023-8-11
_chemical_formula_sum 'C18 H12'
_cell_formula_units_Z 4
_cell_length_a         8.2066636041
_cell_length_b         7.6320760182
_cell_length_c        20.0895593750
_cell_angle_alpha        89.9331
_cell_angle_beta        69.4983
_cell_angle_gamma        89.8792
_cell_volume          1178.586746
_space_group_crystal_system triclinic
_space_group_IT_number 2
_space_group_name_H-M_alt 'P-1'
_space_group_name_Hall '-P 1'
loop_
_symmetry_equiv_pos_site_id
_symmetry_equiv_pos_as_xyz
 1 'x,y,z'
 2 '-x,-y,-z'
loop_
_atom_site_label
_atom_site_type_symbol
_atom_site_fract_x
_atom_site_fract_y
_atom_site_fract_z
H1    H     0.32293241012594 0.35610249974918 0.53827554995344 
H2    H     0.67689543999804 0.85675583985079 0.96156200016976 
H3    H     0.30287087925893 0.23354975983681 0.42926943025398 
H4    H     0.69816986009698 0.73439858050098 0.07057053024127 
H5    H     0.55840282965502 0.08800015937836 0.34048702985697 
H6    H     0.44375329003516 0.58837044961299 0.15948902975425 
H7    H     0.83892321029250 0.07927292943766 0.36154889008701 
H8    H     0.16303738001092 0.57896848047733 0.13868910002381 
H9    H     0.01398294966546 0.14411377050362 0.43269078022108 
H10   H     0.98708901053136 0.64321937986894 0.06761960975281 
H11   H     0.25717836047076 0.23835720018108 0.62846835001687 
H12   H     0.74283146048843 0.73845583017853 0.87144344010195 
H13   H     0.04974423036194 0.30276824972816 0.53424113981959 
H14   H     0.95006769005378 0.80173588974686 0.96613118987994 
H15   H     0.93859234058546 0.48559433935079 0.63584047993431 
H16   H     0.05991419003857 0.98520322019180 0.86452109004445 
H17   H     0.69245943976617 0.61944800995209 0.73253864997376 
H18   H     0.30515101012533 0.11917066945638 0.76765585974946 
H19   H     0.02031816014141 0.34307262026041 0.73331061984014 
H20   H     0.97890661049726 0.84311427004375 0.76641998973997 
H21   H     0.38461356005858 0.63945892952327 0.79775364015553 
H22   H     0.61285293968226 0.13930440023275 0.70219887023640 
H23   H     0.08132020016062 0.55591758011768 0.81706250985139 
H24   H     0.91659971977544 0.05586942990135 0.68266460004715 
C1    C     0.43276299991659 0.28320554008771 0.50299917019889 
C2    C     0.56760244047060 0.78364935962881 0.99693658975998 
C3    C     0.58703399017669 0.27000642982007 0.51936881989346 
C4    C     0.41323270034936 0.77004786972234 0.98070765977435 
C5    C     0.60453568983422 0.33875883033177 0.58383121008828 
C6    C     0.39507792004216 0.83867236017149 0.91627244019306 
C7    C     0.42226026952099 0.21726109026762 0.44062288025446 
C8    C     0.57877469057570 0.71784213963628 0.05929409000941 
C9    C     0.73709585047531 0.19813389996685 0.46523812979539 
C10   C     0.26370184036544 0.69795034955839 0.03493834974065 
C11   C     0.46019221021096 0.39045084984455 0.64687611004991 
C12   C     0.53897914005692 0.89037930052608 0.85312715992094 
C13   C     0.77572803960275 0.36183613010545 0.58475765022136 
C14   C     0.22366772052938 0.86154844024482 0.91547861984051 
C15   C     0.56726806016215 0.13739197998040 0.38985543992042 
C16   C     0.43436209042608 0.63773621958829 0.11015980000678 
C17   C     0.72254138056715 0.13146146971643 0.40187871002322 
C18   C     0.27896328051052 0.63140597031634 0.09826635979541 
C19   C     0.49460284022219 0.49596760981455 0.69959032976304 
C20   C     0.50384430040021 0.99582686975226 0.80043779011995 
C21   C     0.90242934035633 0.20294488051274 0.47359404012299 
C22   C     0.09822936016072 0.70233163011202 0.02667532005987 
C23   C     0.28563824048888 0.33466071040186 0.66254187984843 
C24   C     0.71379557950992 0.83466168035688 0.83734863002776 
C25   C     0.92176494975917 0.28838417962319 0.52999042984243 
C26   C     0.07818817053424 0.78775549999743 0.97031566010423 
C27   C     0.80476120068622 0.46259913988023 0.63938903986030 
C28   C     0.19388903943896 0.96233044946289 0.86089231998699 
C29   C     0.66935162007831 0.53515763971633 0.69303896996602 
C30   C     0.32882632952336 0.03493205963702 0.80713678025026 
C31   C     0.15184921048999 0.39169770051543 0.72255457017513 
C32   C     0.84715346014243 0.89169906986564 0.77724457999003 
C33   C     0.35535508983865 0.55595202988801 0.75953072012445 
C34   C     0.64265968019075 0.05580139952839 0.74038841018966 
C35   C     0.18601403954608 0.50785930994624 0.77044259991822 
C36   C     0.81226042960071 0.00779602031609 0.72936121980614 
