data_stdin
_audit_creation_method 'critic2'
_audit_creation_date 2023-8-11
_chemical_formula_sum 'C18 H12'
_cell_formula_units_Z 8
_cell_length_a        30.9839386673
_cell_length_b         3.8052831142
_cell_length_c        20.7545480614
_cell_angle_alpha        90.1647
_cell_angle_beta        73.6587
_cell_angle_gamma        90.2212
_cell_volume          2348.141463
_space_group_crystal_system triclinic
_space_group_IT_number 2
_space_group_name_H-M_alt 'P-1'
_space_group_name_Hall '-P 1'
loop_
_symmetry_equiv_pos_site_id
_symmetry_equiv_pos_as_xyz
 1 'x,y,z'
 2 '-x,-y,-z'
 3 '-1/2+x,-1/2+y,z'
 4 '-1/2-x,-1/2-y,-z'
loop_
_atom_site_label
_atom_site_type_symbol
_atom_site_fract_x
_atom_site_fract_y
_atom_site_fract_z
H1    H     0.05100783720069 0.96944041182842 0.70951288647107 
H2    H     0.94919241210992 0.97056306951782 0.79074323099326 
H3    H     0.97957314333336 0.92680688669252 0.68105541237915 
H4    H     0.02054766974206 0.92536461602354 0.81922878589069 
H5    H     0.97852555514849 0.77176507896088 0.56471484338872 
H6    H     0.02135177060906 0.76860775905368 0.93543339798792 
H7    H     0.05051289011270 0.71073053109704 0.47565774433574 
H8    H     0.94925774388430 0.70835187617705 0.02436642262020 
H9    H     0.13147786642232 0.76884932439920 0.43774463812556 
H10   H     0.86835140312486 0.76798337991637 0.06224017929760 
H11   H     0.07976835818859 0.54216001983901 0.73734993594628 
H12   H     0.92009329594189 0.54367726977885 0.76241889673428 
H13   H     0.20318447011539 0.92305498349707 0.46179425287236 
H14   H     0.79684089502326 0.92358324858680 0.03822060165743 
H15   H     0.24556577840100 0.05572860578145 0.53937412314053 
H16   H     0.75462557578771 0.05655131436808 0.96066901520850 
H17   H     0.25265116786789 0.09241751645168 0.65500292936064 
H18   H     0.74763464903662 0.09362243491074 0.84504142233951 
H19   H     0.09193962172151 0.49222932142921 0.84816458935643 
H20   H     0.90795330861381 0.49415499390601 0.65153743528581 
H21   H     0.22213229188665 0.97804504677656 0.77381887207628 
H22   H     0.77810074988469 0.97915966565395 0.72616350202710 
H23   H     0.16221773702145 0.72870210400664 0.86915183963420 
H24   H     0.83785621170566 0.73007821918363 0.63067232321840 
C1    C     0.05132618561375 0.89236336554542 0.65901488459262 
C2    C     0.94875946375128 0.89251498886479 0.84115592337224 
C3    C     0.09310085440808 0.83559373340250 0.61029752036923 
C4    C     0.90690572890533 0.83586444250818 0.88976344823307 
C5    C     0.13618695188952 0.85425995441391 0.62463187168917 
C6    C     0.86386109616401 0.85518638965375 0.87537487974638 
C7    C     0.01100557501581 0.87264731842912 0.64292986513076 
C8    C     0.98903931694856 0.87147752383187 0.85727120526891 
C9    C     0.09212131062338 0.78830744771441 0.54218607760729 
C10   C     0.90778821316341 0.78769250199660 0.95784513154434 
C11   C     0.14226897741497 0.81507139322262 0.69091729666022 
C12   C     0.85778992027384 0.81632405005065 0.80902932252582 
C13   C     0.17496819150586 0.91429711158285 0.57001260731569 
C14   C     0.82510744946845 0.91513013384326 0.93000483142644 
C15   C     0.01030533329908 0.79067414880842 0.57713771923423 
C16   C     0.98960770847203 0.78847819380355 0.92298989783382 
C17   C     0.05041984501960 0.75396963207078 0.52759781804537 
C18   C     0.94943181636396 0.75218000475840 0.97245569492533 
C19   C     0.18443424620646 0.91385773613491 0.70162129636170 
C20   C     0.81571527521426 0.91505614733696 0.79835381122580 
C21   C     0.13294072153934 0.80352262421977 0.48920668065112 
C22   C     0.86695973032081 0.80314916299999 0.01079369842983 
C23   C     0.10994499092855 0.65648548974096 0.74554643690738 
C24   C     0.89001653545548 0.65801873190916 0.75428910440618 
C25   C     0.17246480120889 0.88598289628289 0.50253432259566 
C26   C     0.82754093015615 0.88638028689908 0.99747976726825 
C27   C     0.21678886627512 0.00056349591791 0.58227377370842 
C28   C     0.78337728463674 0.00152964460243 0.91775450705872 
C29   C     0.22088572189608 0.01734483219181 0.64599924839590 
C30   C     0.77932607277699 0.01844982420980 0.85402494203821 
C31   C     0.11709651788476 0.62440037044969 0.80810331288678 
C32   C     0.88287338246911 0.62608587376726 0.69168576606376 
C33   C     0.19029947390781 0.88949299850644 0.76665709372808 
C34   C     0.80985783996263 0.89070364747057 0.73328488830643 
C35   C     0.15709437612487 0.75061651175810 0.81951022378337 
C36   C     0.84297611852148 0.75204764897898 0.68034250117161 
