data_stdin
_audit_creation_method 'critic2'
_audit_creation_date 2023-8-11
_chemical_formula_sum 'C18 H12'
_cell_formula_units_Z 4
_cell_length_a         4.9685252133
_cell_length_b        31.6353076565
_cell_length_c         8.4269235284
_cell_angle_alpha        90.0010
_cell_angle_beta        63.5531
_cell_angle_gamma        89.9973
_cell_volume          1185.933735
_space_group_crystal_system monoclinic
_space_group_IT_number 14
_space_group_name_H-M_alt 'P2_1/c'
_space_group_name_Hall '-P 2ybc'
loop_
_symmetry_equiv_pos_site_id
_symmetry_equiv_pos_as_xyz
 1 'x,y,z'
 2 '-x,-y,-z'
 3 '-x,-1/2+y,-1/2-z'
 4 'x,-1/2-y,-1/2+z'
loop_
_atom_site_label
_atom_site_type_symbol
_atom_site_fract_x
_atom_site_fract_y
_atom_site_fract_z
H1    H     0.91383967987474 0.15083267002971 0.98205805971902 
H2    H     0.53633488106480 0.20047335998811 0.17619413985670 
H3    H     0.18890715930386 0.23653266999691 0.07472647025211 
H4    H     0.26744980034042 0.22617202984373 0.76698186056360 
H5    H     0.54826753975621 0.19749178990574 0.47370548967114 
H6    H     0.85285927941163 0.09184466015630 0.98323448990582 
H7    H     0.95992517958207 0.15196366999076 0.26392551952430 
H8    H     0.34798737018685 0.10267214009662 0.19910672942826 
H9    H     0.65917864922268 0.05601355987797 0.28945708021560 
H10   H     0.13643102999443 0.04074777012843 0.06480322939883 
H11   H     0.75915088959887 0.02436529997623 0.51642192966871 
H12   H     0.60909990065310 0.00870289000576 0.83325511994621 
C1    C     0.76271944974317 0.16503147995954 0.93622902006787 
C2    C     0.79696837072840 0.15550730996523 0.76358575971233 
C3    C     0.00721361052211 0.12452594010601 0.64633237014202 
C4    C     0.55297145080232 0.19396507005807 0.04526706975225 
C5    C     0.62474507891106 0.18065087993973 0.69982803049175 
C6    C     0.15574243039067 0.09229746997435 0.70184089057041 
C7    C     0.07219240961251 0.12584265011431 0.46414499056591 
C8    C     0.36392204096636 0.21513598996936 0.98728301937287 
C9    C     0.40547131902829 0.20907884997619 0.81571892055950 
C10   C     0.40308598029523 0.06939709999417 0.56938167045479 
C11   C     0.68132904105122 0.17803408995897 0.51888619973509 
C12   C     0.06105766043235 0.07955023012140 0.88029344016236 
C13   C     0.90586092063742 0.15273585013451 0.40407148009655 
C14   C     0.30468773136239 0.10018334997510 0.33741076935785 
C15   C     0.47463317026598 0.07447761013439 0.38691124011519 
C16   C     0.21906353009201 0.04995951009602 0.92644681008559 
C17   C     0.56649170937595 0.04023394996927 0.62012532961632 
C18   C     0.48080605984635 0.03111632996770 0.79620362031345 
