data_stdin
_audit_creation_method 'critic2'
_audit_creation_date 2023-8-11
_chemical_formula_sum 'C18 H12'
_cell_formula_units_Z 16
_cell_length_a        13.7582275404
_cell_length_b        43.9736580003
_cell_length_c         7.9734283907
_cell_angle_alpha        89.9990
_cell_angle_beta        90.0001
_cell_angle_gamma        90.0022
_cell_volume          4823.920923
_space_group_crystal_system orthorhombic
_space_group_IT_number 43
_space_group_name_H-M_alt 'Fdd2'
_space_group_name_Hall 'F 2 -2d'
loop_
_symmetry_equiv_pos_site_id
_symmetry_equiv_pos_as_xyz
 1 'x,y,z'
 2 '-x,-1/2-y,-1/2+z'
 3 '-3/4-x,-1/4+y,-1/4+z'
 4 '-3/4+x,-1/4-y,-1/4+z'
 5 'x,-1/2+y,-1/2+z'
 6 '-x,-y,z'
 7 '-3/4-x,-3/4+y,-3/4+z'
 8 '-3/4+x,-3/4-y,-3/4+z'
 9 '-1/2+x,y,-1/2+z'
 10 '-1/2-x,-1/2-y,z'
 11 '-1/4-x,-1/4+y,-3/4+z'
 12 '-1/4+x,-1/4-y,-3/4+z'
 13 '-1/2+x,-1/2+y,z'
 14 '-1/2-x,-y,-1/2+z'
 15 '-1/4-x,-3/4+y,-1/4+z'
 16 '-1/4+x,-3/4-y,-1/4+z'
loop_
_atom_site_label
_atom_site_type_symbol
_atom_site_fract_x
_atom_site_fract_y
_atom_site_fract_z
H1    H     0.63274264001521 0.62045879010434 0.50505096964077 
H2    H     0.65480524016404 0.67462410008680 0.44779122976781 
H3    H     0.69287603967231 0.71079012991312 0.68007702024772 
H4    H     0.69190228979037 0.69189694999860 0.97461118951389 
H5    H     0.66742352019616 0.65195342001827 0.17587815044143 
H6    H     0.74375159999122 0.59271445997511 0.50259929027893 
H7    H     0.62259842022996 0.59836002010595 0.23968091951124 
H8    H     0.58823001016789 0.54784158990140 0.15395940956657 
H9    H     0.58696206999506 0.50715095991256 0.93809968023629 
H10   H     0.76024988976701 0.55084583999706 0.30513591974546 
H11   H     0.62632988991614 0.49001714001392 0.65883772035416 
H12   H     0.69725813012501 0.49902133010354 0.37648044044220 
C1    C     0.65157049008961 0.63549304989490 0.60784341038430 
C2    C     0.65896927007300 0.62357329001212 0.77262326992731 
C3    C     0.65252617994271 0.59148321995000 0.81305547017632 
C4    C     0.66236905987993 0.66622694992807 0.57553609058295 
C5    C     0.66726097971456 0.64515801999167 0.90664007974731 
C6    C     0.66676711027017 0.56704947000556 0.69361091056720 
C7    C     0.63161947018619 0.58343698999612 0.98173021940350 
C8    C     0.68094313974608 0.68679617001973 0.70674458976409 
C9    C     0.68110172021557 0.67631453994627 0.86999211002948 
C10   C     0.63955234972136 0.53664755008639 0.73939129061626 
C11   C     0.65839135025302 0.63528386999825 0.07611509010197 
C12   C     0.71297277029888 0.57081638003777 0.53590144010155 
C13   C     0.63573911003312 0.60577097991553 0.11143750062289 
C14   C     0.60712734027044 0.55283058991149 0.02415273053541 
C15   C     0.60696333964463 0.53040034995618 0.90564203016497 
C16   C     0.72395133035334 0.54690720994214 0.42460482021917 
C17   C     0.64915348013618 0.51275393001234 0.62162102971071 
C18   C     0.68917296014490 0.51768659002949 0.46511190019241 
