data_stdin
_audit_creation_method 'critic2'
_audit_creation_date 2023-8-11
_chemical_formula_sum 'C18 H12'
_cell_formula_units_Z 4
_cell_length_a         8.4635161201
_cell_length_b        15.5090221601
_cell_length_c         9.2307514971
_cell_angle_alpha        89.9985
_cell_angle_beta        81.9572
_cell_angle_gamma        90.0025
_cell_volume          1199.718384
_space_group_crystal_system monoclinic
_space_group_IT_number 14
_space_group_name_H-M_alt 'P2_1/c'
_space_group_name_Hall '-P 2ybc'
loop_
_symmetry_equiv_pos_site_id
_symmetry_equiv_pos_as_xyz
 1 'x,y,z'
 2 '-x,-y,-z'
 3 '-x,-1/2+y,-1/2-z'
 4 'x,-1/2-y,-1/2+z'
loop_
_atom_site_label
_atom_site_type_symbol
_atom_site_fract_x
_atom_site_fract_y
_atom_site_fract_z
H1    H     0.26064711003909 0.41917489991985 0.03322784048630 
H2    H     0.46362878024119 0.49311324021969 0.86512150992155 
H3    H     0.60948798981036 0.41572850994152 0.64801121007151 
H4    H     0.56054149039296 0.25937730000512 0.61794347992274 
H5    H     0.44106068994284 0.12674062002342 0.70735763042381 
H6    H     0.03806914981941 0.41746580023088 0.01036732011318 
H7    H     0.25541817953556 0.04497212020762 0.89104488039232 
H8    H     0.06174231045974 0.03919942973799 0.10218643954611 
H9    H     0.87944502998758 0.11005208977031 0.30073447951470 
H10   H     0.83074841944079 0.48193262985588 0.18852694001114 
H11   H     0.75187681936322 0.23800793980852 0.40738943049952 
H12   H     0.69139578997323 0.39461485023615 0.39469992044829 
C1    C     0.31884141009889 0.38435533000726 0.93859225047182 
C2    C     0.27871183007671 0.29670615004700 0.91828665999897 
C3    C     0.15479528023495 0.25035305020678 0.01154387970521 
C4    C     0.43613751983400 0.42601266016806 0.84442065013790 
C5    C     0.37666953017106 0.25092773995387 0.80414504035859 
C6    C     0.02895350049897 0.29097748999649 0.11118372992100 
C7    C     0.15652176996406 0.15888296981617 0.00487200008343 
C8    C     0.51965528969574 0.38237978974207 0.72358503038245 
C9    C     0.49164665009075 0.29565414028328 0.70603468030626 
C10   C     0.93502212988818 0.23940406988832 0.22006934038427 
C11   C     0.36365024023137 0.15965815977686 0.79405087990144 
C12   C     0.98342486022236 0.37861794968184 0.10157052034979 
C13   C     0.26140872993283 0.11512865988044 0.89445036953910 
C14   C     0.05429950974284 0.10923600989897 0.10914018967517 
C15   C     0.95299591013615 0.14803962995866 0.21779799960569 
C16   C     0.86433589941266 0.41488804984043 0.20083984010027 
C17   C     0.81795946994309 0.27866106000786 0.32376090035409 
C18   C     0.78413538957407 0.36543150016941 0.31633376973491 
