data_stdin
_audit_creation_method 'critic2'
_audit_creation_date 2023-8-11
_chemical_formula_sum 'C18 H12'
_cell_formula_units_Z 8
_cell_length_a        14.5571390239
_cell_length_b         8.3388547202
_cell_length_c        20.2075800066
_cell_angle_alpha        89.9994
_cell_angle_beta        77.1960
_cell_angle_gamma        89.9998
_cell_volume          2391.999003
_space_group_crystal_system monoclinic
_space_group_IT_number 15
_space_group_name_H-M_alt 'C2/c'
_space_group_name_Hall '-C 2yc'
loop_
_symmetry_equiv_pos_site_id
_symmetry_equiv_pos_as_xyz
 1 'x,y,z'
 2 '-1/2-x,-1/2-y,-z'
 3 '-1/2-x,-1/2+y,-1/2-z'
 4 'x,-y,-1/2+z'
 5 '-1/2+x,-1/2+y,z'
 6 '-x,-y,-z'
 7 '-x,y,-1/2-z'
 8 '-1/2+x,-1/2-y,-1/2+z'
loop_
_atom_site_label
_atom_site_type_symbol
_atom_site_fract_x
_atom_site_fract_y
_atom_site_fract_z
H1    H     0.33620441018056 0.11677972944295 0.48089443005543 
H2    H     0.35762782981420 0.04789104050047 0.36148305993361 
H3    H     0.41081057002327 0.25644165963954 0.27133393001365 
H4    H     0.42712244981565 0.53821880045968 0.30574432993921 
H5    H     0.40243120970347 0.74405422969784 0.39268430991017 
H6    H     0.44130043021054 0.10441685948931 0.52629744001231 
H7    H     0.35386695013114 0.82059054963167 0.51410099010100 
H8    H     0.31410519996550 0.75339603012545 0.63142402996575 
H9    H     0.30365851033489 0.55715868034594 0.72511248997740 
H10   H     0.45030452010595 0.92513636049562 0.62001041016638 
H11   H     0.33316140015087 0.29239426959054 0.76338537998132 
H12   H     0.39236069984124 0.01417467987443 0.74019030019463 
C1    C     0.36198686960694 0.20827779998569 0.44318965021154 
C2    C     0.37692147018238 0.36632107941544 0.46451172981803 
C3    C     0.36850883967368 0.41229071059848 0.53481026997650 
C4    C     0.37271055978353 0.16966450986454 0.37533722015414 
C5    C     0.39399193021298 0.48824478046450 0.41316421014385 
C6    C     0.37489346990102 0.30157151996917 0.58888801976387 
C7    C     0.35383387021633 0.57719791943553 0.55144827016408 
C8    C     0.40020823031373 0.28717520028285 0.32486423995253 
C9    C     0.40955766974572 0.44428011996038 0.34392717017212 
C10   C     0.35001482031582 0.35589717039221 0.65788729005013 
C11   C     0.38913110976005 0.65300136976993 0.43231690980805 
C12   C     0.41214578000420 0.14418547025089 0.57777771993052 
C13   C     0.36412699987313 0.69522012940146 0.49916023996704 
C14   C     0.32931684005566 0.62685268959860 0.62075454979054 
C15   C     0.32433707014650 0.51919849058029 0.67233771005335 
C16   C     0.41862087017673 0.04312254050164 0.63081737996299 
C17   C     0.35491481024790 0.24897166003660 0.71139410977591 
C18   C     0.38791288025094 0.09433242953056 0.69850333994189 
