data_stdin
_audit_creation_method 'critic2'
_audit_creation_date 2023-8-11
_chemical_formula_sum 'C18 H12'
_cell_formula_units_Z 4
_cell_length_a         8.2675351622
_cell_length_b        13.6302631000
_cell_length_c        10.9080370715
_cell_angle_alpha        90.0000
_cell_angle_beta        72.9620
_cell_angle_gamma        90.0000
_cell_volume          1175.262983
_space_group_crystal_system monoclinic
_space_group_IT_number 14
_space_group_name_H-M_alt 'P2_1/c'
_space_group_name_Hall '-P 2ybc'
loop_
_symmetry_equiv_pos_site_id
_symmetry_equiv_pos_as_xyz
 1 'x,y,z'
 2 '-x,-y,-z'
 3 '-x,-1/2+y,-1/2-z'
 4 'x,-1/2-y,-1/2+z'
loop_
_atom_site_label
_atom_site_type_symbol
_atom_site_fract_x
_atom_site_fract_y
_atom_site_fract_z
H1    H     0.85539956018925 0.78241779970279 0.84065322026038 
H2    H     0.58382664998562 0.76287344008296 0.00299035995269 
H3    H     0.54312937023048 0.81811907015000 0.22778185017360 
H4    H     0.78968027018821 0.88616839019552 0.28790555977991 
H5    H     0.08567829015449 0.91842363988878 0.23791816044437 
H6    H     0.90621825958021 0.88981641981026 0.73230709039068 
H7    H     0.37219833016277 0.92456890994278 0.08032919011272 
H8    H     0.55316636970415 0.91864629967550 0.86932788963159 
H9    H     0.60393116969831 0.90643807970384 0.63439367992368 
H10   H     0.96284059040305 0.88813917016097 0.50118343999112 
H11   H     0.49753766045751 0.89696857022513 0.45250368011321 
H12   H     0.26060576979668 0.88575893022671 0.35657126992466 
C1    C     0.84127395969834 0.81108771972070 0.93594446997263 
C2    C     0.98090041986239 0.85613265991865 0.96425325034763 
C3    C     0.14195968009337 0.87676859035250 0.86990756978985 
C4    C     0.68783143066270 0.79768709028672 0.02867942979334 
C5    C     0.96114818075067 0.87690758995660 0.09678025953539 
C6    C     0.16865295058948 0.88097907980942 0.73223472959880 
C7    C     0.28268275011504 0.89661812022546 0.91596745984176 
C8    C     0.66507983022071 0.82794758977315 0.15603704021600 
C9    C     0.80149058992669 0.86536921998572 0.18917681011383 
C10   C     0.33823245005862 0.88923509969445 0.64814674990886 
C11   C     0.10409104011499 0.90421350013610 0.13653794992879 
C12   C     0.03656473938119 0.88472582974610 0.67335007037696 
C13   C     0.26072955978724 0.90883104008662 0.04975850025836 
C14   C     0.44856229948421 0.90680048027804 0.82928337025031 
C15   C     0.47655953005268 0.90042385005840 0.69999879045785 
C16   C     0.06851974954516 0.88603474972979 0.54160599044134 
C17   C     0.36757819025921 0.89027783971423 0.51357603010105 
C18   C     0.23563261972854 0.88614713011620 0.46024206970872 
