data_stdin
_audit_creation_method 'critic2'
_audit_creation_date 2023-8-11
_chemical_formula_sum 'C18 H12'
_cell_formula_units_Z 8
_cell_length_a        15.3463881900
_cell_length_b        15.2662577800
_cell_length_c        10.0196684801
_cell_angle_alpha        90.0002
_cell_angle_beta        89.9999
_cell_angle_gamma        90.0000
_cell_volume          2347.427150
_space_group_crystal_system orthorhombic
_space_group_IT_number 61
_space_group_name_H-M_alt 'Pbca'
_space_group_name_Hall '-P 2ac 2ab'
loop_
_symmetry_equiv_pos_site_id
_symmetry_equiv_pos_as_xyz
 1 'x,y,z'
 2 '-x,-y,-z'
 3 '-x,-1/2+y,-1/2-z'
 4 'x,-1/2-y,-1/2+z'
 5 '-1/2-x,-y,-1/2+z'
 6 '-1/2+x,y,-1/2-z'
 7 '-1/2+x,-1/2-y,-z'
 8 '-1/2-x,-1/2+y,z'
loop_
_atom_site_label
_atom_site_type_symbol
_atom_site_fract_x
_atom_site_fract_y
_atom_site_fract_z
H1    H     0.59357830766329 0.92927650401925 0.65229095747052 
H2    H     0.68690441275689 0.03136489709824 0.52802478612535 
H3    H     0.76287814012721 0.98265043757431 0.32056054067047 
H4    H     0.75327665075569 0.82644461294920 0.25179892665930 
H5    H     0.70966460314686 0.67848975434031 0.29391024245881 
H6    H     0.46780918394672 0.91535001054199 0.61747472204109 
H7    H     0.63041443108184 0.56941605556683 0.43349562233417 
H8    H     0.53782818136474 0.53297105323433 0.61384672387506 
H9    H     0.44551828761874 0.57471799875969 0.80662767091370 
H10   H     0.36009788868494 0.95012247348709 0.78767797485698 
H11   H     0.36853317747995 0.68582513039405 0.93299280261428 
H12   H     0.31514617913436 0.83815134746316 0.95623217743699 
C1    C     0.62419147703061 0.90740497882005 0.56048264246324 
C2    C     0.61215871353046 0.81930275946192 0.51852125477756 
C3    C     0.55605497875682 0.75705408747290 0.58609699883790 
C4    C     0.67772302026239 0.96473417435812 0.49159259071586 
C5    C     0.66462618426179 0.78991613624760 0.40877221607216 
C6    C     0.48844021568833 0.78066635569905 0.68059300486703 
C7    C     0.56842395355847 0.66665081178307 0.55839361128159 
C8    C     0.72194166540289 0.93704655390487 0.37578860734417 
C9    C     0.71604234231312 0.85058173499995 0.33660783121916 
C10   C     0.45229569892417 0.71393557320157 0.76490434168538 
C11   C     0.66866827997702 0.69903101325053 0.37689306933846 
C12   C     0.45072582396395 0.86527831849072 0.68990843428180 
C13   C     0.62469475689841 0.63944903922293 0.45293206465786 
C14   C     0.52575091074846 0.60158931952188 0.63692330526127 
C15   C     0.47384430601506 0.62445827171176 0.74182792114946 
C16   C     0.38867236960318 0.88492487712912 0.78559083767141 
C17   C     0.39184864823812 0.73677494547986 0.86566127548048 
C18   C     0.36137845790701 0.82137065435059 0.87821155560051 
