data_stdin
_audit_creation_method 'critic2'
_audit_creation_date 2023-8-11
_chemical_formula_sum 'C18 H12'
_cell_formula_units_Z 4
_cell_length_a        13.7033937800
_cell_length_b        11.9741664500
_cell_length_c         7.4233730601
_cell_angle_alpha        90.0003
_cell_angle_beta        90.0000
_cell_angle_gamma        90.0000
_cell_volume          1218.076922
_space_group_crystal_system orthorhombic
_space_group_IT_number 33
_space_group_name_H-M_alt 'Pna2_1'
_space_group_name_Hall 'P 2c -2n'
loop_
_symmetry_equiv_pos_site_id
_symmetry_equiv_pos_as_xyz
 1 'x,y,z'
 2 '-x,-y,-1/2+z'
 3 '-1/2-x,-1/2+y,-1/2+z'
 4 '-1/2+x,-1/2-y,z'
loop_
_atom_site_label
_atom_site_type_symbol
_atom_site_fract_x
_atom_site_fract_y
_atom_site_fract_z
H1    H     0.30349624999947 0.20249628035039 0.00054649019828 
H2    H     0.21251065030745 0.10535357017320 0.23657524045093 
H3    H     0.17644535992975 0.90158253974879 0.20940385053170 
H4    H     0.22512611966622 0.80091167011943 0.93143564037039 
H5    H     0.29671356014754 0.80003910983814 0.63239581933483 
H6    H     0.43933920982711 0.21943080014105 0.01627579946167 
H7    H     0.37468257022087 0.90018852965182 0.37944931010294 
H8    H     0.45111411029502 0.06023049019318 0.25537350008874 
H9    H     0.52395386019658 0.24854837970472 0.28655996971104 
H10   H     0.52890642021256 0.39450307966603 0.04418431937236 
H11   H     0.57634613993572 0.40113911031343 0.47285524058028 
H12   H     0.59650901007306 0.48959780966430 0.77374797052731 
C1    C     0.29220727968352 0.11322706982786 0.98858293988103 
C2    C     0.32910825990957 0.05653105015556 0.83550766936624 
C3    C     0.39046809022622 0.10813405027839 0.69922013065202 
C4    C     0.23865578013952 0.05882972033806 0.11999215031236 
C5    C     0.29882152963579 0.94267647038285 0.81250745961566 
C6    C     0.44525386011231 0.21090250001804 0.72429435959368 
C7    C     0.39976834994155 0.05233274018102 0.53095294043415 
C8    C     0.21738735970846 0.94430821021919 0.10438304026444 
C9    C     0.24559266991970 0.88812664011446 0.95037179999760 
C10   C     0.49123272973184 0.26220545006031 0.57133837060756 
C11   C     0.31912780018302 0.88667509984535 0.64739565942090 
C12   C     0.46329832971434 0.26107826015674 0.89450472955911 
C13   C     0.36337022980727 0.94144876035018 0.50845426055918 
C14   C     0.44766262971449 0.10494256960084 0.38290559053656 
C15   C     0.48828009982499 0.20838492961128 0.40047779984817 
C16   C     0.51592598985050 0.35910448033717 0.91128015026745 
C17   C     0.54360819966774 0.36334804001012 0.59199593025539 
C18   C     0.55498917982996 0.41265069995636 0.75865779030456 
