data_stdin
_audit_creation_method 'critic2'
_audit_creation_date 2023-8-11
_chemical_formula_sum 'C18 H12'
_cell_formula_units_Z 4
_cell_length_a         9.5667515919
_cell_length_b         7.8554790904
_cell_length_c        18.2251669766
_cell_angle_alpha        89.9995
_cell_angle_beta        62.0279
_cell_angle_gamma        89.9996
_cell_volume          1209.639314
_space_group_crystal_system monoclinic
_space_group_IT_number 14
_space_group_name_H-M_alt 'P2_1/c'
_space_group_name_Hall '-P 2ybc'
loop_
_symmetry_equiv_pos_site_id
_symmetry_equiv_pos_as_xyz
 1 'x,y,z'
 2 '-x,-y,-z'
 3 '-x,-1/2+y,-1/2-z'
 4 'x,-1/2-y,-1/2+z'
loop_
_atom_site_label
_atom_site_type_symbol
_atom_site_fract_x
_atom_site_fract_y
_atom_site_fract_z
H1    H     0.18663036993945 0.57591540957027 0.02745850009521 
H2    H     0.07169821014377 0.82614832052639 0.99677571991681 
H3    H     0.78030788974744 0.87636384939016 0.07165559021872 
H4    H     0.60552407015211 0.66039198045553 0.17296421015814 
H5    H     0.56673606032051 0.38098808969329 0.23427585979335 
H6    H     0.25792825991870 0.56410616001880 0.11322535015303 
H7    H     0.67810314966889 0.10055015962289 0.24396265000468 
H8    H     0.89605830072669 0.91620677027202 0.21197694974706 
H9    H     0.18244843030784 0.86462993980530 0.15646261013769 
H10   H     0.53272825006719 0.51283373052729 0.08008911028067 
H11   H     0.44803911012665 0.97287509029147 0.10394310985433 
H12   H     0.63418906008301 0.21641282955919 0.07106561029173 
C1    C     0.06025711038853 0.59744782051300 0.06332464012625 
C2    C     0.96511744931931 0.47444720050896 0.12281972023352 
C3    C     0.02790741020216 0.32130847945070 0.14103274980893 
C4    C     0.99521467037335 0.73765621941214 0.04485592000744 
C5    C     0.79689407038450 0.49634312024004 0.15954325972160 
C6    C     0.19179550984330 0.29775997999113 0.12202120991817 
C7    C     0.92194862019468 0.18380594947812 0.17926579008560 
C8    C     0.83059191997470 0.76482601029366 0.08606708998252 
C9    C     0.73367346980896 0.64519670981917 0.14247911026908 
C10   C     0.24746146979160 0.12937181973796 0.12487320987474 
C11   C     0.69417965956606 0.36187586058120 0.20709835024438 
C12   C     0.29922600069563 0.43368207940483 0.10756041976454 
C13   C     0.75517934963446 0.20812001972158 0.21268140028381 
C14   C     0.98036668041575 0.01971264958113 0.18459134976545 
C15   C     0.13852661039220 0.99133713945421 0.15429419987540 
C16   C     0.45432239017644 0.40495318029824 0.09036238021868 
C17   C     0.40839352980906 0.10279230016409 0.10361354004795 
C18   C     0.51146246974551 0.23795728943488 0.08569756020273 
