data_stdin
_audit_creation_method 'critic2'
_audit_creation_date 2023-8-11
_chemical_formula_sum 'C18 H12'
_cell_formula_units_Z 4
_cell_length_a        29.7460432213
_cell_length_b         9.7826329486
_cell_length_c         3.9203209060
_cell_angle_alpha        90.0005
_cell_angle_beta        90.0072
_cell_angle_gamma        90.0057
_cell_volume          1140.792288
_space_group_crystal_system orthorhombic
_space_group_IT_number 19
_space_group_name_H-M_alt 'P2_12_12_1'
_space_group_name_Hall 'P 2ac 2ab'
loop_
_symmetry_equiv_pos_site_id
_symmetry_equiv_pos_as_xyz
 1 'x,y,z'
 2 '-1/2+x,-1/2-y,-z'
 3 '-1/2-x,-y,-1/2+z'
 4 '-x,-1/2+y,-1/2-z'
loop_
_atom_site_label
_atom_site_type_symbol
_atom_site_fract_x
_atom_site_fract_y
_atom_site_fract_z
H1    H     0.91628075009877 0.94062718997827 0.56842968106237 
H2    H     0.89445412987479 0.17159246045850 0.73648277956628 
H3    H     0.82230760986285 0.21268484957111 0.04603967978019 
H4    H     0.77042202002024 0.01820757967110 0.14661979101253 
H5    H     0.74966320986878 0.78180545010945 0.06666406112114 
H6    H     0.95125025009472 0.81849241030351 0.86779760872824 
H7    H     0.76576907999592 0.55408132015805 0.81200987033586 
H8    H     0.81439921006312 0.39971387994033 0.51796766100662 
H9    H     0.88902739000290 0.33791976025726 0.28346918979033 
H10   H     0.02580357998106 0.73845115041944 0.71603091096352 
H11   H     0.96891192007051 0.38411038995534 0.23277389983979 
H12   H     0.03575694993309 0.52554518985338 0.36965557965848 
C1    C     0.88548736007107 0.95457793002732 0.71245549119087 
C2    C     0.85789291011762 0.83980896046005 0.78331481071786 
C3    C     0.86967618002751 0.70069123007981 0.69284776004028 
C4    C     0.87286604997171 0.08573696007786 0.80292936011484 
C5    C     0.81451770007438 0.86676039952193 0.92814263104533 
C6    C     0.91487927986016 0.65536782006194 0.61428417103956 
C7    C     0.83462885010965 0.60239740012685 0.68044107912631 
C8    C     0.83182960984954 0.10945781019804 0.97107403923861 
C9    C     0.80305743995658 0.00121969000534 0.02868612029626 
C10   C     0.92125006001943 0.52461036983550 0.45602486104557 
C11   C     0.78214748000837 0.75954649955313 0.95061801058432 
C12   C     0.95413493011100 0.72791814956698 0.71015176004644 
C13   C     0.79126056015419 0.63414288013558 0.81434579889317 
C14   C     0.84250155999733 0.47094654046928 0.53432513064843 
C15   C     0.88374988986919 0.43588701009007 0.40931863052946 
C16   C     0.99663340006371 0.68111416010093 0.62819079931642 
C17   C     0.96496983985237 0.48146810958731 0.36386359964823 
C18   C     0.00223362985599 0.55940323989406 0.44219796053929 
