data_stdin
_audit_creation_method 'critic2'
_audit_creation_date 2023-8-11
_chemical_formula_sum 'C18 H12'
_cell_formula_units_Z 4
_cell_length_a         3.8822763524
_cell_length_b        29.0841737204
_cell_length_c        10.4036750337
_cell_angle_alpha        90.0088
_cell_angle_beta        81.2832
_cell_angle_gamma        90.0198
_cell_volume          1161.139652
_space_group_crystal_system triclinic
_space_group_IT_number 2
_space_group_name_H-M_alt 'P-1'
_space_group_name_Hall '-P 1'
loop_
_symmetry_equiv_pos_site_id
_symmetry_equiv_pos_as_xyz
 1 'x,y,z'
 2 '-x,-y,-z'
loop_
_atom_site_label
_atom_site_type_symbol
_atom_site_fract_x
_atom_site_fract_y
_atom_site_fract_z
H1    H     0.15271733922192 0.29125110010434 0.33153437021907 
H2    H     0.84753842012068 0.79127784008876 0.16848886003385 
H3    H     0.40169298111354 0.21796052999409 0.25180600964658 
H4    H     0.59870025927337 0.71796890983137 0.24826921962275 
H5    H     0.78192742089109 0.21266868993409 0.03606898992761 
H6    H     0.21816469063414 0.71267869994724 0.46394603976198 
H7    H     0.85722465917896 0.28180631992224 0.89374393985681 
H8    H     0.14243754897235 0.78184441994928 0.60617883049067 
H9    H     0.71261423005295 0.36020008999725 0.84837881968440 
H10   H     0.28681569033293 0.86027012006796 0.65148687976134 
H11   H     0.40158179901837 0.33183575003806 0.43251777997165 
H12   H     0.59854553043485 0.83181426001964 0.06742725972667 
H13   H     0.39936846033647 0.43273090014106 0.91635726021801 
H14   H     0.60008815095525 0.93282532001951 0.58348188980778 
H15   H     0.06407245982191 0.47934891994126 0.07620264025314 
H16   H     0.93563689907681 0.97943908014606 0.42364415984773 
H17   H     0.79241634024669 0.49478425993944 0.30339623991384 
H18   H     0.20763300906580 0.99484134989255 0.19647943050162 
H19   H     0.20690413015334 0.35369006985927 0.65743315980236 
H20   H     0.79335854940929 0.85364441990740 0.84250314976923 
H21   H     0.72268859929587 0.47501611013645 0.53095637996228 
H22   H     0.27751921102472 0.97503601015706 0.96892514010347 
H23   H     0.84881786961032 0.42474547998651 0.71039570046066 
H24   H     0.15149234869380 0.92472198984607 0.78951892013475 
C1    C     0.32285058045401 0.29043956006171 0.23879993006522 
C2    C     0.67729566890815 0.79046440997250 0.26119928966375 
C3    C     0.38493118048149 0.33140422016586 0.16517145989105 
C4    C     0.61501548120307 0.83143786986396 0.33477658020683 
C5    C     0.25906571925761 0.37636339016097 0.21077690981036 
C6    C     0.74087602908395 0.87640105006230 0.28914309025621 
C7    C     0.45824564940953 0.24863358011335 0.19234503006367 
C8    C     0.54196275121173 0.74865004016393 0.30768202979163 
C9    C     0.56434057917236 0.32673692009435 0.03478988038235 
C10   C     0.43543767953551 0.82677958983772 0.46513494973838 
C11   C     0.15077321001820 0.38820769997831 0.34631499000608 
C12   C     0.84930612886336 0.88822557008773 0.15360495036066 
C13   C     0.24754845026251 0.41140494012708 0.11650827028482 
C14   C     0.75224346995686 0.91146504987254 0.38338198026128 
C15   C     0.66582347981196 0.24542023992314 0.06962157043365 
C16   C     0.33422072974117 0.74543897003275 0.43037498001711 
C17   C     0.71197756038789 0.28396454983943 0.99162620038693 
C18   C     0.28784537051318 0.78399767986352 0.50832099016447 
C19   C     0.97452888939036 0.43101839001537 0.37815665005649 
C20   C     0.02560679932830 0.93104389995490 0.12174710021083 
C21   C     0.57691380922056 0.36457770986152 0.94720453981644 
C22   C     0.42266725908595 0.86464185002806 0.55268121961084 
C23   C     0.23415377020543 0.36164297014991 0.45176401951513 
C24   C     0.76597837093478 0.86163371985638 0.04816882962215 
C25   C     0.40761762103526 0.40458165990888 0.98511752006943 
C26   C     0.59196803106488 0.90465838994270 0.51475732953048 
C27   C     0.07806456055280 0.45401945987582 0.15235606963904 
C28   C     0.92176936971188 0.95408668989974 0.34751918972803 
C29   C     0.93162602014773 0.46279710988742 0.27754677962155 
C30   C     0.06840492924965 0.96284668014706 0.22233874998874 
C31   C     0.12878048064874 0.37448487989195 0.57969589002183 
C32   C     0.87144896915549 0.87445981986488 0.92023292992690 
C33   C     0.86170478876471 0.44274154983613 0.50975316007736 
C34   C     0.13852434077506 0.94275115011770 0.99014897965729 
C35   C     0.93346744867066 0.41484645011869 0.60959528036981 
C36   C     0.06679246004429 0.91483253983757 0.89032047025934 
