data_stdin
_audit_creation_method 'critic2'
_audit_creation_date 2023-8-11
_chemical_formula_sum 'C18 H12'
_cell_formula_units_Z 8
_cell_length_a        22.0447210300
_cell_length_b         8.1957059101
_cell_length_c        13.5716624510
_cell_angle_alpha        90.0000
_cell_angle_beta        90.0007
_cell_angle_gamma        89.9998
_cell_volume          2452.020083
_space_group_crystal_system orthorhombic
_space_group_IT_number 41
_space_group_name_H-M_alt 'Aea2'
_space_group_name_Hall 'A 2 -2ac'
loop_
_symmetry_equiv_pos_site_id
_symmetry_equiv_pos_as_xyz
 1 'x,y,z'
 2 '-x,-y,z'
 3 '-1/2-x,-1/2+y,z'
 4 '-1/2+x,-1/2-y,z'
 5 'x,-1/2+y,-1/2+z'
 6 '-x,-1/2-y,-1/2+z'
 7 '-1/2-x,y,-1/2+z'
 8 '-1/2+x,-y,-1/2+z'
loop_
_atom_site_label
_atom_site_type_symbol
_atom_site_fract_x
_atom_site_fract_y
_atom_site_fract_z
H1    H     0.75654638010791 0.27036107993633 0.99463537993173 
H2    H     0.64784803993304 0.26147259956285 0.03086916983459 
H3    H     0.57894169013287 0.07980274004309 0.93305564031626 
H4    H     0.61959109013258 0.93656156049008 0.78639801011035 
H5    H     0.70163840988219 0.87685586043672 0.67426189998129 
H6    H     0.81267660021963 0.10910884989618 0.05658664972052 
H7    H     0.80826517981680 0.92303780951149 0.62069864023140 
H8    H     0.90705600994282 0.03089806026739 0.64771091982214 
H9    H     0.98561710995130 0.14683954978731 0.75954315024526 
H10   H     0.89518362984723 0.17770307974337 0.16818109983578 
H11   H     0.01899863990613 0.20618272027545 0.92350453968869 
H12   H     0.99968075017022 0.23258909946807 0.10307075010791 
C1    C     0.72771727995300 0.18941900032369 0.95208548008751 
C2    C     0.75333238999725 0.09676813945111 0.87426833010634 
C3    C     0.81765919995899 0.09132029988040 0.85237896976586 
C4    C     0.66610935988992 0.18624379964786 0.97174391024770 
C5    C     0.71198446984123 0.01351832973802 0.81005056020493 
C6    C     0.86528606014730 0.13146995980642 0.92192156970342 
C7    C     0.83518849982511 0.04087554980278 0.75642607024173 
C8    C     0.62692448992923 0.08870507992684 0.91488645971866 
C9    C     0.64962005022525 0.00691139042215 0.83392566986640 
C10   C     0.92606183005262 0.15324339952267 0.88642696990387 
C11   C     0.73351588990639 0.94334553945523 0.72057831012781 
C12   C     0.85667339000516 0.13852790993948 0.02540353984463 
C13   C     0.79227377012357 0.96571428047034 0.69204702991489 
C14   C     0.89612913988822 0.06382674022408 0.72347996035045 
C15   C     0.93941752980157 0.12594116943169 0.78499608967334 
C16   C     0.90383104009015 0.17502503942783 0.08916654981962 
C17   C     0.97325438007780 0.19308514999068 0.95277152032026 
C18   C     0.96252331988737 0.20589326059717 0.05270486024166 
