data_stdin
_audit_creation_method 'critic2'
_audit_creation_date 2023-8-11
_chemical_formula_sum 'C18 H12'
_cell_formula_units_Z 2
_cell_length_a         3.8783892250
_cell_length_b        10.3259421535
_cell_length_c        14.3670961825
_cell_angle_alpha        90.0005
_cell_angle_beta        85.4916
_cell_angle_gamma        89.9939
_cell_volume           573.593486
_space_group_crystal_system monoclinic
_space_group_IT_number 7
_space_group_name_H-M_alt 'Pc'
_space_group_name_Hall 'P -2yc'
loop_
_symmetry_equiv_pos_site_id
_symmetry_equiv_pos_as_xyz
 1 'x,y,z'
 2 'x,-y,-1/2+z'
loop_
_atom_site_label
_atom_site_type_symbol
_atom_site_fract_x
_atom_site_fract_y
_atom_site_fract_z
H1    H     0.00037526043907 0.13015348977647 0.01142358980089 
H2    H     0.80153662887774 0.28524700030387 0.13139398022024 
H3    H     0.51238939909132 0.49182641047308 0.08827088028788 
H4    H     0.50083561054324 0.54901409982235 0.92089283019341 
H5    H     0.67295934950563 0.50571865981844 0.75728400994397 
H6    H     0.67264542979509 0.99962186011737 0.96662328010122 
H7    H     0.97183806999985 0.36483704004341 0.63640822981763 
H8    H     0.24886024103748 0.16483876985256 0.58930551987784 
H9    H     0.39754188035258 0.93614463029559 0.62060682994658 
H10   H     0.73862644044013 0.76629643960180 0.98455905021914 
H11   H     0.31656157053939 0.74579404006506 0.71711274987597 
H12   H     0.07116601096017 0.63653412011438 0.86131981031440 
C1    C     0.87344825111016 0.21799932022225 0.99062393992446 
C2    C     0.84409340037506 0.24282257971105 0.89456905012131 
C3    C     0.95019533929384 0.15200725966617 0.82101656002419 
C4    C     0.76356611018792 0.30669811006017 0.05872051028136 
C5    C     0.72803300971921 0.36919880001433 0.87003922012861 
C6    C     0.98307488121200 0.01374877036202 0.83471164014374 
C7    C     0.02062581924714 0.20168880045976 0.72940961982780 
C8    C     0.61156843082305 0.42442580955772 0.03431942994481 
C9    C     0.60062911964815 0.45550325992478 0.94116374965162 
C10   C     0.14982981940246 0.93678116013300 0.76120929968341 
C11   C     0.76234528025039 0.40932292961909 0.77475444017431 
C12   C     0.83222561092073 0.94691572969871 0.91405359005037 
C13   C     0.92364078005165 0.33106514997753 0.70815239017956 
C14   C     0.18482100888237 0.12213746963288 0.65781960009285 
C15   C     0.26182810916711 0.99563523981288 0.67433402026954 
C16   C     0.86418946908249 0.81431454974759 0.92346614966417 
C17   C     0.18470188920996 0.80163772973318 0.77348747989376 
C18   C     0.04794298924049 0.74088208003879 0.85356988010547 
