data_stdin
_audit_creation_method 'critic2'
_audit_creation_date 2023-8-11
_chemical_formula_sum 'C18 H12'
_cell_formula_units_Z 4
_cell_length_a         7.3130124855
_cell_length_b        10.8042204207
_cell_length_c        14.8773202055
_cell_angle_alpha        89.9992
_cell_angle_beta        85.7699
_cell_angle_gamma        89.9998
_cell_volume          1172.275698
_space_group_crystal_system monoclinic
_space_group_IT_number 14
_space_group_name_H-M_alt 'P2_1/c'
_space_group_name_Hall '-P 2ybc'
loop_
_symmetry_equiv_pos_site_id
_symmetry_equiv_pos_as_xyz
 1 'x,y,z'
 2 '-x,-y,-z'
 3 '-x,-1/2+y,-1/2-z'
 4 'x,-1/2-y,-1/2+z'
loop_
_atom_site_label
_atom_site_type_symbol
_atom_site_fract_x
_atom_site_fract_y
_atom_site_fract_z
H1    H     0.15202466016109 0.29606645039476 0.06086115024543 
H2    H     0.14888552069345 0.12101066039731 0.95661673977918 
H3    H     0.44096286048418 0.03399881024297 0.88664437972920 
H4    H     0.73503645051190 0.13721005988210 0.91461684001340 
H5    H     0.90269783011104 0.30394129023605 0.97665607026943 
H6    H     0.15457355950722 0.27712405033103 0.18803571017289 
H7    H     0.91127551035274 0.49129008968482 0.07324662027044 
H8    H     0.76491545021361 0.64076337985976 0.17049091990631 
H9    H     0.49264119956537 0.72214456029754 0.26005063988852 
H10   H     0.90266364967918 0.34836423017713 0.28990761966802 
H11   H     0.18580204028440 0.69169876044588 0.32810404988356 
H12   H     0.90796346057684 0.56039611956411 0.35831413003031 
C1    C     0.28159833975545 0.25788478025743 0.03363574975658 
C2    C     0.44787531995612 0.31303818040773 0.05679301019151 
C3    C     0.45854743995316 0.41265934995855 0.12166560017620 
C4    C     0.27919015023016 0.16029521965323 0.97347184992265 
C5    C     0.61254454937862 0.27133929037788 0.00769475975816 
C6    C     0.31013405932263 0.44832265998095 0.18672660008412 
C7    C     0.62551840013992 0.47981088005544 0.12197734022261 
C8    C     0.44354431026855 0.11242188982999 0.93230916978471 
C9    C     0.60664636952601 0.16936431039394 0.94836496016331 
C10   C     0.32143202936585 0.56396737037342 0.23356245017253 
C11   C     0.78026933056202 0.33600853009013 0.01608335026568 
C12   C     0.15817352985742 0.37140982997826 0.21277411032969 
C13   C     0.78483701981936 0.43901990009306 0.06901430026258 
C14   C     0.63588634958620 0.59014886028561 0.17406464996896 
C15   C     0.48632238057086 0.63465027042141 0.22410490022106 
C16   C     0.01669166017803 0.41088442012114 0.27273423006662 
C17   C     0.17359747003008 0.60320952037196 0.29380366997727 
C18   C     0.02089042935833 0.52937680042573 0.31186047002360 
