data_stdin
_audit_creation_method 'critic2'
_audit_creation_date 2023-8-11
_chemical_formula_sum 'C18 H12'
_cell_formula_units_Z 8
_cell_length_a        15.8484415812
_cell_length_b        18.6231738801
_cell_length_c         8.0775445202
_cell_angle_alpha        90.0003
_cell_angle_beta        89.9997
_cell_angle_gamma        89.9991
_cell_volume          2384.073398
_space_group_crystal_system orthorhombic
_space_group_IT_number 61
_space_group_name_H-M_alt 'Pbca'
_space_group_name_Hall '-P 2ac 2ab'
loop_
_symmetry_equiv_pos_site_id
_symmetry_equiv_pos_as_xyz
 1 'x,y,z'
 2 '-x,-y,-z'
 3 '-x,-1/2+y,-1/2-z'
 4 'x,-1/2-y,-1/2+z'
 5 '-1/2-x,-y,-1/2+z'
 6 '-1/2+x,y,-1/2-z'
 7 '-1/2+x,-1/2-y,-z'
 8 '-1/2-x,-1/2+y,z'
loop_
_atom_site_label
_atom_site_type_symbol
_atom_site_fract_x
_atom_site_fract_y
_atom_site_fract_z
H1    H     0.44065422012753 0.11253592990004 0.92537628957158 
H2    H     0.48982869989252 0.99209562014339 0.85014909995328 
H3    H     0.39040681979195 0.90347841004306 0.72109691049685 
H4    H     0.23961285013901 0.93410091003815 0.69471646939876 
H5    H     0.12224833016281 0.01397637011226 0.75331198007414 
H6    H     0.44074511020326 0.18827335012630 0.74592714039332 
H7    H     0.06817443020115 0.12869392978683 0.86885780955115 
H8    H     0.09163889986604 0.24717699987688 0.97852458002624 
H9    H     0.18519922978492 0.35169735023752 0.02626476006466 
H10   H     0.52516453981134 0.29758970995006 0.75609268038993 
H11   H     0.32062314996700 0.40951510005042 0.99279275023941 
H12   H     0.46783916019173 0.40906087975808 0.89033121046619 
C1    C     0.39692309016211 0.07530220023472 0.86733533982132 
C2    C     0.31186553003093 0.09641748009472 0.84226225983539 
C3    C     0.28045876019417 0.16815070982554 0.87399351997681 
C4    C     0.42450186991615 0.00700688974096 0.82640124981823 
C5    C     0.25368875987699 0.04198067021214 0.78954385011181 
C6    C     0.33285582977724 0.23190017002942 0.87706113010231 
C7    C     0.19215037979960 0.17674007017096 0.89644203040356 
C8    C     0.36855166009114 0.95658325020390 0.75704825974489 
C9    C     0.28420307987085 0.97374050016588 0.74119570957355 
C10   C     0.29753205007614 0.29797521984703 0.93593225974918 
C11   C     0.16526691002378 0.05608075974153 0.79354860007286 
C12   C     0.41543004974638 0.23488302014509 0.80935621978835 
C13   C     0.13576750983083 0.11957614984321 0.85539894973987 
C14   C     0.15909996997919 0.24352807986895 0.95380755058882 
C15   C     0.21047973030813 0.30133700989421 0.97931084017375 
C16   C     0.46264459991055 0.29735866000509 0.81212797991670 
C17   C     0.34813626028480 0.36054231975231 0.94299902991514 
C18   C     0.42992710975674 0.36034597006871 0.88431338034790 
