data_stdin
_audit_creation_method 'critic2'
_audit_creation_date 2023-8-11
_chemical_formula_sum 'C18 H12'
_cell_formula_units_Z 8
_cell_length_a         9.2397488468
_cell_length_b        15.3382873202
_cell_length_c        17.2608239102
_cell_angle_alpha        90.0005
_cell_angle_beta        90.0024
_cell_angle_gamma        90.0000
_cell_volume          2446.237148
_space_group_crystal_system orthorhombic
_space_group_IT_number 61
_space_group_name_H-M_alt 'Pbca'
_space_group_name_Hall '-P 2ac 2ab'
loop_
_symmetry_equiv_pos_site_id
_symmetry_equiv_pos_as_xyz
 1 'x,y,z'
 2 '-x,-y,-z'
 3 '-1/2-x,-y,-1/2+z'
 4 '-1/2+x,y,-1/2-z'
 5 '-1/2+x,-1/2-y,-z'
 6 '-1/2-x,-1/2+y,z'
 7 '-x,-1/2+y,-1/2-z'
 8 'x,-1/2-y,-1/2+z'
loop_
_atom_site_label
_atom_site_type_symbol
_atom_site_fract_x
_atom_site_fract_y
_atom_site_fract_z
H1    H     0.65778654978170 0.58517715028134 0.92453482001529 
H2    H     0.58023139985634 0.53578744019174 0.05244913974300 
H3    H     0.44305786977281 0.63564135983684 0.14070944011531 
H4    H     0.40819602031680 0.78960335988077 0.10285992972868 
H5    H     0.45531918985687 0.90997351972318 0.01542761997003 
H6    H     0.52347207036702 0.57660572000551 0.83311327978110 
H7    H     0.57059310029265 0.96682676972452 0.89545796973549 
H8    H     0.69163441010414 0.94442040028500 0.77476592009462 
H9    H     0.78168009039260 0.84728314023407 0.67031998022220 
H10   H     0.57495097991307 0.48777810968198 0.71942225992490 
H11   H     0.78370387996607 0.70565256008674 0.60949588010824 
H12   H     0.71200605021040 0.54987085996881 0.60707179989345 
C1    C     0.59677217049975 0.62958226021486 0.96112189003342 
C2    C     0.56835190036884 0.71557495974530 0.93498913977066 
C3    C     0.60723820954467 0.74746190996248 0.85873553026972 
C4    C     0.55419942954872 0.60181723971486 0.03394831983030 
C5    C     0.50628776984997 0.77496375010176 0.98998919971445 
C6    C     0.63567193997153 0.69213687029666 0.79232834974678 
C7    C     0.61721929009418 0.83899200012454 0.84824587996364 
C8    C     0.47890726011548 0.65809201989074 0.08412855977618 
C9    C     0.45793302992376 0.74385271027157 0.06265175985770 
C10   C     0.70299433013359 0.72909090010680 0.72499831972771 
C11   C     0.50234230994301 0.86589027027068 0.97283713023247 
C12   C     0.58857679990741 0.60430772970329 0.78695520026112 
C13   C     0.56409842985357 0.89695930002809 0.90644509027611 
C14   C     0.68044261026145 0.87389840027759 0.77946597989493 
C15   C     0.72931550993629 0.82062803981272 0.72167650976855 
C16   C     0.61520831053752 0.55441446006442 0.72171602021169 
C17   C     0.73232485044399 0.67606214020996 0.65978074971711 
C18   C     0.69108967957278 0.58954848995164 0.65821908022454 
