data_stdin
_audit_creation_method 'critic2'
_audit_creation_date 2023-8-11
_chemical_formula_sum 'C18 H12'
_cell_formula_units_Z 4
_cell_length_a         6.3009142914
_cell_length_b        11.2222316100
_cell_length_c        16.6897353807
_cell_angle_alpha        90.0000
_cell_angle_beta        90.0006
_cell_angle_gamma        90.0013
_cell_volume          1180.136521
_space_group_crystal_system orthorhombic
_space_group_IT_number 19
_space_group_name_H-M_alt 'P2_12_12_1'
_space_group_name_Hall 'P 2ac 2ab'
loop_
_symmetry_equiv_pos_site_id
_symmetry_equiv_pos_as_xyz
 1 'x,y,z'
 2 '-1/2-x,-y,-1/2+z'
 3 '-1/2+x,-1/2-y,-z'
 4 '-x,-1/2+y,-1/2-z'
loop_
_atom_site_label
_atom_site_type_symbol
_atom_site_fract_x
_atom_site_fract_y
_atom_site_fract_z
H1    H     0.00662349078616 0.99288434992167 0.76811710997440 
H2    H     0.69619338992299 0.02920417994247 0.68592941001784 
H3    H     0.59565457015335 0.88829126995721 0.57669801028312 
H4    H     0.83995484073165 0.72236100966942 0.54190826018920 
H5    H     0.16626521010088 0.61388812970041 0.56221518016986 
H6    H     0.99840419936447 0.90935534974786 0.86515948994060 
H7    H     0.49774692932353 0.58036681023244 0.63766647028915 
H8    H     0.72514512994933 0.61943501027971 0.74554567991994 
H9    H     0.81217516015685 0.71937423000369 0.87381916995536 
H10   H     0.07736340046018 0.98452976957049 0.99843571984101 
H11   H     0.70861086999567 0.84194171042241 0.98487322999849 
H12   H     0.43929024955960 0.96310174974716 0.05746765027081 
C1    C     0.96925359031219 0.92891439005866 0.72153143008652 
C2    C     0.10044149001203 0.82759916993148 0.70949327017734 
C3    C     0.27773281934922 0.79430012981057 0.76067053028348 
C4    C     0.79338255925935 0.95113334962531 0.67409082015040 
C5    C     0.05647876023353 0.75693903974139 0.63953024988199 
C6    C     0.31389085069840 0.83917734998763 0.84131913007294 
C7    C     0.42445671954297 0.70922630044524 0.73037370994181 
C8    C     0.73992532929625 0.87358606043922 0.61115746028136 
C9    C     0.87341002975075 0.78003404028982 0.59289114004202 
C10   C     0.51258762010651 0.81416498989322 0.88036657984088 
C11   C     0.20041091952744 0.66547540956285 0.61587342000165 
C12   C     0.15860289029738 0.89948302980168 0.88787493980648 
C13   C     0.38271552936731 0.64622979038323 0.65782886993964 
C14   C     0.61579313062789 0.68294288998707 0.77237518970049 
C15   C     0.66306121965396 0.73720646016196 0.84319795021971 
C16   C     0.20261663989295 0.94159933036642 0.96402108981835 
C17   C     0.55531529996443 0.86133125996828 0.95748546022905 
C18   C     0.40465353067433 0.92669086998331 0.99847390015132 
