data_stdin
_audit_creation_method 'critic2'
_audit_creation_date 2023-8-11
_chemical_formula_sum 'C18 H12'
_cell_formula_units_Z 8
_cell_length_a        29.4011241828
_cell_length_b         3.9630012702
_cell_length_c        21.1153794704
_cell_angle_alpha        90.0104
_cell_angle_beta        70.2500
_cell_angle_gamma        89.9996
_cell_volume          2315.570208
_space_group_crystal_system monoclinic
_space_group_IT_number 15
_space_group_name_H-M_alt 'C2/c'
_space_group_name_Hall '-C 2yc'
loop_
_symmetry_equiv_pos_site_id
_symmetry_equiv_pos_as_xyz
 1 'x,y,z'
 2 '-x,-y,-z'
 3 '-x,y,-1/2-z'
 4 'x,-y,-1/2+z'
 5 '-1/2+x,-1/2+y,z'
 6 '-1/2-x,-1/2-y,-z'
 7 '-1/2-x,-1/2+y,-1/2-z'
 8 '-1/2+x,-1/2-y,-1/2+z'
loop_
_atom_site_label
_atom_site_type_symbol
_atom_site_fract_x
_atom_site_fract_y
_atom_site_fract_z
H1    H     0.05489531008582 0.29442780992556 0.76356467017587 
H2    H     0.04635438008324 0.24552350975327 0.88126479010115 
H3    H     0.11784934014564 0.12439435969605 0.91606162975206 
H4    H     0.19766108988559 0.01706727046040 0.82791957014915 
H5    H     0.24782792986184 0.96763982954994 0.71243449010159 
H6    H     0.06210554982966 0.68527981079180 0.71289559017769 
H7    H     0.25649602985169 0.94727228114843 0.59159849019513 
H8    H     0.22453771000211 0.00167658977980 0.50345292024897 
H9    H     0.15963681987373 0.16573077106616 0.45969878996747 
H10   H     0.00119122012022 0.86748579051248 0.66574339982691 
H11   H     0.08101719988034 0.40196743012285 0.47704754018206 
H12   H     0.00812067981624 0.71439757995448 0.54819993011065 
C1    C     0.08725879998296 0.25378225877451 0.77624253012763 
C2    C     0.13279649004543 0.22294171973852 0.72439573002794 
C3    C     0.14020047991283 0.25777495122896 0.65309717999911 
C4    C     0.08211268008598 0.21943107058958 0.84347835017925 
C5    C     0.17271933998073 0.12379772008110 0.74494245015346 
C6    C     0.10506994000625 0.39777558010588 0.62580167009707 
C7    C     0.18427242016747 0.13328006027159 0.60677092975651 
C8    C     0.12223488006634 0.14652011091993 0.86299382977095 
C9    C     0.16660366007184 0.09308718919221 0.81412158007629 
C10   C     0.11154473011379 0.34633052907593 0.55602280002408 
C11   C     0.21795699996560 0.03893070036900 0.69570876024010 
C12   C     0.06500468996578 0.59915736886008 0.66296292015768 
C13   C     0.22280693014476 0.03053857956665 0.62917686988973 
C14   C     0.19063004990054 0.10496338908700 0.53698316992434 
C15   C     0.15485910996406 0.19579120005024 0.51280948020091 
C16   C     0.03092950010202 0.70925647945946 0.63580461999163 
C17   C     0.07563135994677 0.45484029902998 0.52972897979078 
C18   C     0.03528930984196 0.62830230021971 0.56909706011146 
