data_stdin
_audit_creation_method 'critic2'
_audit_creation_date 2023-8-11
_chemical_formula_sum 'C18 H12'
_cell_formula_units_Z 4
_cell_length_a         9.5872053403
_cell_length_b        18.0119115220
_cell_length_c         7.9340222014
_cell_angle_alpha        90.0064
_cell_angle_beta        59.2029
_cell_angle_gamma        90.0080
_cell_volume          1176.877171
_space_group_crystal_system monoclinic
_space_group_IT_number 14
_space_group_name_H-M_alt 'P2_1/c'
_space_group_name_Hall '-P 2ybc'
loop_
_symmetry_equiv_pos_site_id
_symmetry_equiv_pos_as_xyz
 1 'x,y,z'
 2 '-x,-y,-z'
 3 '-x,-1/2+y,-1/2-z'
 4 'x,-1/2-y,-1/2+z'
loop_
_atom_site_label
_atom_site_type_symbol
_atom_site_fract_x
_atom_site_fract_y
_atom_site_fract_z
H1    H     0.34191209979362 0.47273128000449 0.27580847026751 
H2    H     0.45716027937891 0.37090587012455 0.36881271042173 
H3    H     0.73254977961141 0.38127722013185 0.32320430037181 
H4    H     0.89728405040627 0.49511458985862 0.16734297988607 
H5    H     0.93679042014654 0.61168483008731 0.99864650063740 
H6    H     0.21015496007938 0.54894313005118 0.45955925023572 
H7    H     0.83628328962912 0.70857507007436 0.86656233015915 
H8    H     0.62656667005859 0.76403938027766 0.83121872071667 
H9    H     0.34072519991092 0.77153932025497 0.91423068017776 
H10   H     0.92582220042068 0.57181020993094 0.57198070016198 
H11   H     0.06259280997446 0.73297208006317 0.11199848035364 
H12   H     0.84635340980356 0.65933102981554 0.39101282940034 
C1    C     0.45928425009945 0.48045765022075 0.26253465940455 
C2    C     0.54485842948789 0.54789562023169 0.18463746057211 
C3    C     0.47900130054287 0.61157238005368 0.13648461985217 
C4    C     0.52531171057436 0.42220472004867 0.31192721979986 
C5    C     0.70984055948714 0.55022462980594 0.14067331004809 
C6    C     0.30747564013424 0.62356819994047 0.20989764067038 
C7    C     0.58972400050905 0.66666848015256 0.01070584959754 
C8    C     0.68239097989975 0.42756021011371 0.28298753928414 
C9    C     0.77347394021496 0.49048110005677 0.19659012022408 
C10   C     0.25987826011572 0.68061262005311 0.12292544996954 
C11   C     0.81186141024443 0.61076166016397 0.03085697004360 
C12   C     0.18064303997921 0.58650871997245 0.37555942984375 
C13   C     0.75556482045656 0.66481491991737 0.96012081944790 
C14   C     0.53690533040835 0.72455581005777 0.93350870950612 
C15   C     0.37893661024206 0.72921809986320 0.98012981042936 
C16   C     0.01867961020915 0.60005586984968 0.44093889050444 
C17   C     0.09361255001354 0.69109926027034 0.18685360031580 
C18   C     0.97407488968209 0.65089513005639 0.34205442961143 
