data_stdin
_audit_creation_method 'critic2'
_audit_creation_date 2023-8-11
_chemical_formula_sum 'C18 H12'
_cell_formula_units_Z 8
_cell_length_a         7.8679509139
_cell_length_b        15.1740809903
_cell_length_c        20.4050075018
_cell_angle_alpha        90.0011
_cell_angle_beta        90.0019
_cell_angle_gamma        89.9999
_cell_volume          2436.131896
_space_group_crystal_system orthorhombic
_space_group_IT_number 61
_space_group_name_H-M_alt 'Pbca'
_space_group_name_Hall '-P 2ac 2ab'
loop_
_symmetry_equiv_pos_site_id
_symmetry_equiv_pos_as_xyz
 1 'x,y,z'
 2 '-x,-y,-z'
 3 '-1/2-x,-y,-1/2+z'
 4 '-1/2+x,y,-1/2-z'
 5 '-1/2+x,-1/2-y,-z'
 6 '-1/2-x,-1/2+y,z'
 7 '-x,-1/2+y,-1/2-z'
 8 'x,-1/2-y,-1/2+z'
loop_
_atom_site_label
_atom_site_type_symbol
_atom_site_fract_x
_atom_site_fract_y
_atom_site_fract_z
H1    H     0.19989326134983 0.68296378623762 0.21751331044212 
H2    H     0.19048865640641 0.76174370142329 0.32166001706382 
H3    H     0.33307351361455 0.69915921831038 0.42119516734792 
H4    H     0.47057247266006 0.55249671784409 0.41432728386369 
H5    H     0.53865394411305 0.42018209016818 0.35470751290535 
H6    H     0.37870888789779 0.70472131814275 0.15277551112420 
H7    H     0.53075911916821 0.33264217310996 0.25173749385054 
H8    H     0.45430868907839 0.31561016142464 0.13987837195971 
H9    H     0.35329185222830 0.37704072093942 0.03407956803607 
H10   H     0.30828577115587 0.76324931354674 0.04514053890141 
H11   H     0.26985894424939 0.50058186561683 0.96793008858663 
H12   H     0.23592256326377 0.66144759711785 0.95215999676178 
C1    C     0.26835856591800 0.65595876183176 0.25907920075242 
C2    C     0.35714395172851 0.57497067896004 0.25220614503864 
C3    C     0.37717030280308 0.52847265206505 0.19064870705846 
C4    C     0.25904828217841 0.69951141643287 0.31856615822989 
C5    C     0.42071547805753 0.53532552967512 0.31114010907085 
C6    C     0.34686871169944 0.56710573372419 0.12670440766043 
C7    C     0.42738972279802 0.43857682488825 0.19304511424649 
C8    C     0.33667773256924 0.66379623537886 0.37479220051405 
C9    C     0.41348976400431 0.58223248383569 0.37102568673227 
C10   C     0.32819709734985 0.51007148035699 0.07106251823453 
C11   C     0.48773891449827 0.44815272149601 0.30960483321572 
C12   C     0.34432809946366 0.65901367006287 0.11411163134745 
C13   C     0.48478903878907 0.40039387829738 0.25293657566599 
C14   C     0.41844626618752 0.38477200145553 0.13577769186585 
C15   C     0.36244171591707 0.41831034498221 0.07758698394266 
C16   C     0.30623927140446 0.69226659796895 0.05267229686728 
C17   C     0.28433013626269 0.54546095223019 0.00920187724933 
C18   C     0.26857610570978 0.63529067153799 0.00022691293236 
