data_stdin
_audit_creation_method 'critic2'
_audit_creation_date 2023-8-11
_chemical_formula_sum 'C18 H12'
_cell_formula_units_Z 8
_cell_length_a         8.0990246711
_cell_length_b        15.8678103454
_cell_length_c        18.5689741691
_cell_angle_alpha        90.0008
_cell_angle_beta        90.0003
_cell_angle_gamma        89.9990
_cell_volume          2386.369199
_space_group_crystal_system orthorhombic
_space_group_IT_number 61
_space_group_name_H-M_alt 'Pbca'
_space_group_name_Hall '-P 2ac 2ab'
loop_
_symmetry_equiv_pos_site_id
_symmetry_equiv_pos_as_xyz
 1 'x,y,z'
 2 '-x,-y,-z'
 3 '-1/2-x,-y,-1/2+z'
 4 '-1/2+x,y,-1/2-z'
 5 '-1/2+x,-1/2-y,-z'
 6 '-1/2-x,-1/2+y,z'
 7 '-x,-1/2+y,-1/2-z'
 8 'x,-1/2-y,-1/2+z'
loop_
_atom_site_label
_atom_site_type_symbol
_atom_site_fract_x
_atom_site_fract_y
_atom_site_fract_z
H1    H     0.25390189029901 0.05881203020387 0.18829896976389 
H2    H     0.24504923001582 0.97326127005721 0.29731533976708 
H3    H     0.10968347019993 0.02860208977281 0.40940877988256 
H4    H     0.00428953032128 0.17505026030611 0.41098332978152 
H5    H     0.96930436056977 0.31085952031233 0.35416077984621 
H6    H     0.07459650060137 0.05905537026250 0.11232494016306 
H7    H     0.01614051985781 0.40579002973334 0.25023991996102 
H8    H     0.12531814961374 0.43104182978195 0.13173785998961 
H9    H     0.24091201950071 0.37898424977258 0.01613602020997 
H10   H     0.14936648031626 0.01168009000221 0.99100811974809 
H11   H     0.30087037052046 0.26285660993337 0.93492860013510 
H12   H     0.27610389026458 0.11255694987228 0.90284029994055 
C1    C     0.19003444038970 0.08326848021486 0.23521803973441 
C2    C     0.12103983982907 0.16546534008272 0.23286600980933 
C3    C     0.12340963031504 0.21855842021957 0.16940035019802 
C4    C     0.18796182029138 0.03542277009774 0.29749469994180 
C5    C     0.06136619055990 0.19970823015427 0.29938060006024 
C6    C     0.15541304981010 0.18819061975761 0.09717483985433 
C7    C     0.09965899971226 0.30656975012584 0.17878508016241 
C8    C     0.11505767983677 0.06704489993471 0.36087867983564 
C9    C     0.05484223022357 0.14840348009080 0.36169328977064 
C10   C     0.20693381050255 0.24716102011081 0.04305062005670 
C11   C     0.01673329051430 0.28640700995518 0.30348370976513 
C12   C     0.13155072041442 0.10340235026558 0.07528365022818 
C13   C     0.04176600939750 0.33854876030489 0.24600869024016 
C14   C     0.13974406030154 0.36371674983144 0.12195724010840 
C15   C     0.20164534045316 0.33528884001833 0.05797535019463 
C16   C     0.17223221938897 0.07684817004998 0.00648536975356 
C17   C     0.25527994011642 0.21767076995846 0.97431254002895 
C18   C     0.24037960992644 0.13359641011471 0.95634812982521 
