data_stdin
_audit_creation_method 'critic2'
_audit_creation_date 2023-8-11
_chemical_formula_sum 'C18 H12'
_cell_formula_units_Z 8
_cell_length_a        39.5220784154
_cell_length_b         3.7920082498
_cell_length_c        15.4845480980
_cell_angle_alpha        90.0401
_cell_angle_beta        88.6339
_cell_angle_gamma        89.9312
_cell_volume          2319.977145
_space_group_crystal_system triclinic
_space_group_IT_number 2
_space_group_name_H-M_alt 'P-1'
_space_group_name_Hall '-P 1'
loop_
_symmetry_equiv_pos_site_id
_symmetry_equiv_pos_as_xyz
 1 'x,y,z'
 2 '-x,-y,-z'
 3 '-1/2+x,-1/2+y,z'
 4 '-1/2-x,-1/2-y,-z'
loop_
_atom_site_label
_atom_site_type_symbol
_atom_site_fract_x
_atom_site_fract_y
_atom_site_fract_z
H1    H     0.35438428761682 0.14348120722467 0.53138566575136 
H2    H     0.64562418215281 0.14347280918561 0.96853218279655 
H3    H     0.30030922028029 0.27189547905328 0.46591055456280 
H4    H     0.69967135249235 0.27142928364869 0.03409587188876 
H5    H     0.25219069183252 0.52156952224795 0.55492606138960 
H6    H     0.74774463674687 0.52125406457681 0.94523769049687 
H7    H     0.25814305707636 0.57282646059170 0.71368278827845 
H8    H     0.74178109137743 0.57334907501361 0.78651421149086 
H9    H     0.28968260172742 0.46037451326903 0.84298886740878 
H10   H     0.71026219570246 0.46179102166620 0.65714136683433 
H11   H     0.38877632049580 0.52468841477513 0.54222430867793 
H12   H     0.61113521758541 0.52469424456571 0.95792214219775 
H13   H     0.34123839339236 0.23312570847280 0.91235874964092 
H14   H     0.65875703949122 0.23492525235891 0.58761570576745 
H15   H     0.39821329591378 0.00354197577735 0.90316397315096 
H16   H     0.60184259273957 0.00507531285173 0.59666659736959 
H17   H     0.45159791327987 0.89947977602835 0.82079501629413 
H18   H     0.54849168917792 0.90029182254158 0.67897702464833 
H19   H     0.44422129604935 0.50916394813785 0.47003197609909 
H20   H     0.55569494900674 0.50856546195973 0.03010115528741 
H21   H     0.48605740206038 0.99299920201893 0.69066838111479 
H22   H     0.51401115406579 0.99285683076664 0.80917586161594 
H23   H     0.49358385510788 0.23059215316213 0.54253438207358 
H24   H     0.50641571999394 0.22985067344702 0.95745244345959 
C1    C     0.33412802010194 0.25542253407808 0.57130696914828 
C2    C     0.66585815965405 0.25554913624542 0.92868667705328 
C3    C     0.33928190016287 0.30805846279228 0.66063051452440 
C4    C     0.66069530181290 0.30858896343252 0.83939511500597 
C5    C     0.37120820148635 0.24557745932383 0.70195525494049 
C6    C     0.62878471465849 0.24626624976890 0.79802777084200 
C7    C     0.30333158947268 0.32457749862801 0.53437075260165 
C8    C     0.69664058800739 0.32442388005594 0.96566769626557 
C9    C     0.31022748284843 0.40217312337280 0.71278027929197 
C10   C     0.68973042253847 0.40289881088787 0.78730775950008 
C11   C     0.40373148902714 0.24213444609846 0.65693364527468 
C12   C     0.59626252877176 0.24246515771322 0.84304889279381 
C13   C     0.37055427081488 0.19006313306674 0.79260504211875 
C14   C     0.62945300048417 0.19119591865097 0.70734213293104 
C15   C     0.27605129281926 0.45638399631930 0.58479434117862 
C16   C     0.72389664669287 0.45631454522034 0.91532775349892 
C17   C     0.27947119535268 0.48843404370911 0.67290948507789 
C18   C     0.72047050094500 0.48883229251720 0.82723456513850 
C19   C     0.43274812486191 0.11149375598422 0.70072766149332 
C20   C     0.56728318059299 0.11182865558194 0.79917875779388 
C21   C     0.31205322374102 0.38753072636000 0.80448621849599 
C22   C     0.68790767996151 0.38875156417679 0.69559198775341 
C23   C     0.40933774350473 0.38923655847354 0.57354630828919 
C24   C     0.59061394869160 0.38922501849207 0.92652052123508 
C25   C     0.34057396920390 0.26472316121228 0.84249190132417 
C26   C     0.65941453194015 0.26616530308421 0.65750396383150 
C27   C     0.39996948986305 0.06287762942621 0.83432460568419 
C28   C     0.60007201530135 0.06407764376213 0.66554442161762 
C29   C     0.42960787659776 0.00898913871995 0.78912536215286 
C30   C     0.57045066469654 0.00978444756034 0.71071307573739 
C31   C     0.44092282033580 0.38585559492340 0.53320895615604 
C32   C     0.55902930961175 0.38550282080801 0.96685350159064 
C33   C     0.46458242091707 0.10280628213404 0.65708580428090 
C34   C     0.53545229396197 0.10272530720076 0.84281968911030 
C35   C     0.46876596372006 0.23473548230270 0.57451683687464 
C36   C     0.53123101572965 0.23431213869093 0.92546596140689 
