data_stdin
_audit_creation_method 'critic2'
_audit_creation_date 2023-8-11
_chemical_formula_sum 'C18 H12'
_cell_formula_units_Z 8
_cell_length_a        29.6674473556
_cell_length_b         5.7291599665
_cell_length_c        14.2533193659
_cell_angle_alpha        90.0013
_cell_angle_beta        80.1892
_cell_angle_gamma        89.9905
_cell_volume          2387.201589
_space_group_crystal_system monoclinic
_space_group_IT_number 15
_space_group_name_H-M_alt 'C2/c'
_space_group_name_Hall '-C 2yc'
loop_
_symmetry_equiv_pos_site_id
_symmetry_equiv_pos_as_xyz
 1 'x,y,z'
 2 '-1/2-x,-1/2-y,-z'
 3 '-1/2-x,-1/2+y,-1/2-z'
 4 'x,-y,-1/2+z'
 5 '-1/2+x,-1/2+y,z'
 6 '-x,-y,-z'
 7 '-x,y,-1/2-z'
 8 '-1/2+x,-1/2-y,-1/2+z'
loop_
_atom_site_label
_atom_site_type_symbol
_atom_site_fract_x
_atom_site_fract_y
_atom_site_fract_z
H1    H     0.05562310015925 0.68871057914353 0.38584705968361 
H2    H     0.03677128008978 0.35244678953306 0.29507477982249 
H3    H     0.09684997984006 0.06413383080277 0.22837358022414 
H4    H     0.17753711011207 0.14085244977356 0.24363298994864 
H5    H     0.23537416992342 0.38365353964212 0.29492556034700 
H6    H     0.04857787999155 0.69030299004154 0.51901148016978 
H7    H     0.25677575998991 0.73266106043388 0.38041030997540 
H8    H     0.23812753985616 0.06560018920929 0.47509489029575 
H9    H     0.18154287989565 0.33818132036363 0.56625375998489 
H10   H     0.99552897999459 0.95084715020027 0.61700146009260 
H11   H     0.10458519988819 0.43661110002706 0.63185731987193 
H12   H     0.02215677996624 0.33537414914193 0.67078823989689 
C1    C     0.08226601997944 0.56307388981706 0.36073892008844 
C2    C     0.12725209984871 0.60045972978379 0.37904930014578 
C3    C     0.13968462014173 0.78463058920748 0.43990903972870 
C4    C     0.07169420985642 0.37466733014716 0.30781989980584 
C5    C     0.16236288994346 0.45058780056189 0.32980394032203 
C6    C     0.10731008001135 0.92197066022642 0.50560350982163 
C7    C     0.18698141007519 0.83548980971845 0.43442086027123 
C8    C     0.10561108995548 0.21465380086136 0.26812774031682 
C9    C     0.15045794005703 0.25713890041614 0.27722460021711 
C10   C     0.12307178987940 0.12954870941093 0.54643600010205 
C11   C     0.20922800006795 0.49938820973515 0.33263707998525 
C12   C     0.06090682990087 0.85953990982111 0.53735296002794 
C13   C     0.22097252007607 0.69051630004238 0.38025846011103 
C14   C     0.20155114994375 0.03291362079775 0.48241656999916 
C15   C     0.17066513010465 0.18101758997544 0.53326204024377 
C16   C     0.03094144986147 0.00490085965140 0.59540191022772 
C17   C     0.09168213001140 0.27785001927908 0.60385249990889 
C18   C     0.04595657003900 0.21987413934301 0.62637802983052 
