data_stdin
_audit_creation_method 'critic2'
_audit_creation_date 2023-8-11
_chemical_formula_sum 'C18 H12'
_cell_formula_units_Z 4
_cell_length_a         5.1825189253
_cell_length_b        14.9955981304
_cell_length_c        16.2786101184
_cell_angle_alpha        89.9998
_cell_angle_beta        71.5930
_cell_angle_gamma        89.9999
_cell_volume          1200.366377
_space_group_crystal_system monoclinic
_space_group_IT_number 14
_space_group_name_H-M_alt 'P2_1/c'
_space_group_name_Hall '-P 2ybc'
loop_
_symmetry_equiv_pos_site_id
_symmetry_equiv_pos_as_xyz
 1 'x,y,z'
 2 '-x,-y,-z'
 3 '-x,-1/2+y,-1/2-z'
 4 'x,-1/2-y,-1/2+z'
loop_
_atom_site_label
_atom_site_type_symbol
_atom_site_fract_x
_atom_site_fract_y
_atom_site_fract_z
H1    H     0.88943999027543 0.53045644974617 0.57529976030455 
H2    H     0.62255783024879 0.42361348973990 0.52225306007516 
H3    H     0.19944454062402 0.35659431974706 0.62340025994373 
H4    H     0.06911281028469 0.39140938972053 0.78010762969877 
H5    H     0.16576093947140 0.45988016028282 0.90101512974557 
H6    H     0.82040197061522 0.65898479987915 0.57681755997866 
H7    H     0.46524781926862 0.55295710976329 0.95900733022620 
H8    H     0.85404660029075 0.64649268994028 0.93837654016018 
H9    H     0.23476174042823 0.73687660006067 0.84382072995117 
H10   H     0.15990290964703 0.76428993980680 0.49147514029237 
H11   H     0.45942015986266 0.80400237020058 0.70678264998759 
H12   H     0.49224550965265 0.83497214002341 0.55438494028941 
C1    C     0.70188998985233 0.50471673984790 0.62002604976585 
C2    C     0.62268981875302 0.53118095969104 0.70817004031420 
C3    C     0.76724568073763 0.59693050992591 0.74220747007721 
C4    C     0.55390272889476 0.44299681993069 0.59019001022370 
C5    C     0.39769217024295 0.48449953970065 0.76678807023044 
C6    C     0.95743495954918 0.66140787972114 0.68977783029624 
C7    C     0.71963772931506 0.59826583005094 0.83310200998182 
C8    C     0.31774241959851 0.40412052999885 0.64720217995326 
C9    C     0.24409576933291 0.42386875004623 0.73443064016136 
C10   C     0.13154558994655 0.70942847002231 0.72749959026200 
C11   C     0.33885405920716 0.49571624018126 0.85781419011952 
C12   C     0.96936920062510 0.68571549987360 0.60436754022200 
C13   C     0.50291049080932 0.54729616977277 0.88948258997381 
C14   C     0.88909344103393 0.65013052985518 0.86884515975986 
C15   C     0.09691073012667 0.70043448006593 0.81741369995266 
C16   C     0.15721063013663 0.74702953018252 0.55670669985348 
C17   C     0.32671214032230 0.76986584008466 0.67680316017106 
C18   C     0.34278772910836 0.78762646970746 0.59214792014684 
