data_stdin
_audit_creation_method 'critic2'
_audit_creation_date 2023-8-11
_chemical_formula_sum 'C18 H12'
_cell_formula_units_Z 4
_cell_length_a        13.8840711274
_cell_length_b         9.2341570800
_cell_length_c         9.7225512864
_cell_angle_alpha        89.9999
_cell_angle_beta        86.6197
_cell_angle_gamma        90.0002
_cell_volume          1244.337152
_space_group_crystal_system monoclinic
_space_group_IT_number 14
_space_group_name_H-M_alt 'P2_1/c'
_space_group_name_Hall '-P 2ybc'
loop_
_symmetry_equiv_pos_site_id
_symmetry_equiv_pos_as_xyz
 1 'x,y,z'
 2 '-x,-y,-z'
 3 '-x,-1/2+y,-1/2-z'
 4 'x,-1/2-y,-1/2+z'
loop_
_atom_site_label
_atom_site_type_symbol
_atom_site_fract_x
_atom_site_fract_y
_atom_site_fract_z
H1    H     0.56911983015175 0.52054966026710 0.04365425995904 
H2    H     0.46643904982025 0.35096973951871 0.17954819952457 
H3    H     0.53887758976419 0.13581854952363 0.28991680022352 
H4    H     0.71253114006712 0.08128366022510 0.24071182982073 
H5    H     0.86460401014444 0.12962202021407 0.11613684034863 
H6    H     0.62942877011789 0.68475354951515 0.12689507046372 
H7    H     0.96380259030650 0.28083802974165 0.95157156037486 
H8    H     0.98573615982795 0.49148033954509 0.80864972021510 
H9    H     0.93320867018841 0.73282364950917 0.73206393986201 
H10   H     0.59024922986140 0.93369353959165 0.06632307044871 
H11   H     0.82791826966215 0.94065377999503 0.76302423972687 
H12   H     0.68786500026621 0.06419147963963 0.88155842005658 
C1    C     0.60216277001008 0.42880115973664 0.09207802036218 
C2    C     0.70300936974001 0.40720793011970 0.07050365970911 
C3    C     0.76707227015951 0.50700276998401 0.99479218971374 
C4    C     0.54400536986342 0.33272001950333 0.16799487039020 
C5    C     0.74110340998519 0.27367637999938 0.11947861972340 
C6    C     0.74421328993515 0.65734208976734 0.96786559026009 
C7    C     0.85846506027705 0.45352448969115 0.94423774951644 
C8    C     0.58428809993599 0.20968664043960 0.22780170990836 
C9    C     0.68109340984669 0.17995636016321 0.20165500961234 
C10   C     0.80427926973011 0.73712402979825 0.86928093016287 
C11   C     0.83748179016732 0.23213380952422 0.07870819969281 
C12   C     0.66915109979115 0.73539261986845 0.04037354997017 
C13   C     0.89194891965893 0.31583356950190 0.98832993978811 
C14   C     0.91741483983898 0.53724485975155 0.84882557036895 
C15   C     0.88909413013228 0.67131308031027 0.80773833954015 
C16   C     0.64868400967910 0.87773240036846 0.00880338950572 
C17   C     0.78187673969976 0.88286199972996 0.83926571962446 
C18   C     0.70415333014027 0.95205047000912 0.90549570050132 
