data_stdin
_audit_creation_method 'critic2'
_audit_creation_date 2023-8-11
_chemical_formula_sum 'C18 H12'
_cell_formula_units_Z 2
_cell_length_a         9.7277863975
_cell_length_b         8.1641360705
_cell_length_c         8.1056726505
_cell_angle_alpha        95.7186
_cell_angle_beta        69.7480
_cell_angle_gamma        78.8993
_cell_volume           582.900193
_space_group_crystal_system triclinic
_space_group_IT_number 2
_space_group_name_H-M_alt 'P-1'
_space_group_name_Hall '-P 1'
loop_
_symmetry_equiv_pos_site_id
_symmetry_equiv_pos_as_xyz
 1 'x,y,z'
 2 '-x,-y,-z'
loop_
_atom_site_label
_atom_site_type_symbol
_atom_site_fract_x
_atom_site_fract_y
_atom_site_fract_z
H1    H     0.16712690948181 0.12424109023523 0.35116290025996 
H2    H     0.95129718015003 0.36198993984651 0.51885025044268 
H3    H     0.78907562001060 0.50655858034171 0.36917880007818 
H4    H     0.85518973975451 0.41220023019536 0.04435953963539 
H5    H     0.02188503013709 0.24281020984742 0.76169894001273 
H6    H     0.17303391013085 0.88475895997665 0.32726080018805 
H7    H     0.26585771960381 0.03715714987431 0.57728208050575 
H8    H     0.49499424972966 0.85049114950143 0.54902220050415 
H9    H     0.66044387996217 0.68681259992572 0.68121130019779 
H10   H     0.32925600054999 0.69630372024914 0.44278511956146 
H11   H     0.69811299011973 0.58662538013143 0.93361942052249 
H12   H     0.59714180021087 0.55224726004839 0.25218369049698 
C1    C     0.09579420977246 0.17993093970972 0.28391562002259 
C2    C     0.13423261039268 0.11859985965781 0.09953875051359 
C3    C     0.26398507956669 0.98118608952669 0.99308619035390 
C4    C     0.97490133037500 0.31638251970428 0.37857426974525 
C5    C     0.04645391019565 0.21078937032136 0.01302981039235 
C6    C     0.34827142005617 0.86267230937159 0.06615119953189 
C7    C     0.31525292069101 0.96535272935306 0.80423035948770 
C8    C     0.88405953029290 0.39899648942188 0.29421196935808 
C9    C     0.92035036016367 0.34643786997476 0.11396342953235 
C10   C     0.49606383045081 0.76379453978570 0.95227284969860 
C11   C     0.09207387020764 0.17320329033074 0.82368099939449 
C12   C     0.29047916996860 0.82895920035780 0.24236133061029 
C13   C     0.22540009030928 0.05974329027975 0.72274671998235 
C14   C     0.45835488005491 0.85624621019354 0.69302321055654 
C15   C     0.54887814964850 0.76528133992957 0.76528060035720 
C16   C     0.37834966962439 0.71967080045865 0.30731284043174 
C17   C     0.58524874971291 0.65715811055972 0.02346537000766 
C18   C     0.52903679978712 0.63755466964602 0.19952141998172 
