data_stdin
_audit_creation_method 'critic2'
_audit_creation_date 2023-8-11
_chemical_formula_sum 'C18 H12'
_cell_formula_units_Z 4
_cell_length_a        15.8014017277
_cell_length_b         6.6755266330
_cell_length_c        12.4198577838
_cell_angle_alpha        90.0014
_cell_angle_beta        67.9079
_cell_angle_gamma        90.0018
_cell_volume          1213.894337
_space_group_crystal_system monoclinic
_space_group_IT_number 14
_space_group_name_H-M_alt 'P2_1/c'
_space_group_name_Hall '-P 2ybc'
loop_
_symmetry_equiv_pos_site_id
_symmetry_equiv_pos_as_xyz
 1 'x,y,z'
 2 '-x,-y,-z'
 3 '-x,-1/2+y,-1/2-z'
 4 'x,-1/2-y,-1/2+z'
loop_
_atom_site_label
_atom_site_type_symbol
_atom_site_fract_x
_atom_site_fract_y
_atom_site_fract_z
H1    H     0.67752571982987 0.22158974991989 0.16607001989140 
H2    H     0.71820681982297 0.95767446961539 0.27419378959925 
H3    H     0.85704809014469 0.98714358935237 0.32159149957454 
H4    H     0.96111308995144 0.28091427002384 0.24534495025695 
H5    H     0.00006557992770 0.58804494050422 0.13835400034831 
H6    H     0.59579254966887 0.43632560983049 0.24395602036599 
H7    H     0.96773410988615 0.84628411935551 0.01620887980119 
H8    H     0.87336911017302 0.98703047054466 0.92499448972214 
H9    H     0.72854087016705 0.00308701070312 0.89269165023902 
H10   H     0.44946294973757 0.48424079999058 0.22693137039961 
H11   H     0.57125074983586 0.89763860990138 0.94450610016743 
H12   H     0.43558525007524 0.70542152957960 0.07090663019543 
C1    C     0.73587293987880 0.24423669059061 0.19056523982205 
C2    C     0.78827966979419 0.42243162021690 0.15613068992195 
C3    C     0.76396024025989 0.59028040031121 0.09921192971785 
C4    C     0.75985226988223 0.09250267070700 0.24956338977811 
C5    C     0.87309284007543 0.42834656061579 0.17342713989729 
C6    C     0.67392279004666 0.62305204010382 0.09671488024037 
C7    C     0.83287971988056 0.73369165057418 0.04255140960616 
C8    C     0.83957222967846 0.10733434028850 0.27437904042094 
C9    C     0.89626029032326 0.27069498972387 0.23354833956883 
C10   C     0.66309924986579 0.76803647995980 0.01739827993079 
C11   C     0.93542998033692 0.58867306926076 0.12602225982791 
C12   C     0.59319058985665 0.52985566966827 0.17394630040723 
C13   C     0.91743542993204 0.73132832977936 0.05899245989845 
C14   C     0.81830098989296 0.88237793982097 0.96887703020971 
C15   C     0.73789022013307 0.89313711977636 0.95204104986202 
C16   C     0.50921110016717 0.56043800953210 0.16588248967545 
C17   C     0.57686741985679 0.79253226026100 0.00861709018559 
C18   C     0.50114340968534 0.68784924981666 0.07988664022926 
