data_stdin
_audit_creation_method 'critic2'
_audit_creation_date 2023-8-11
_chemical_formula_sum 'C18 H12'
_cell_formula_units_Z 4
_cell_length_a         6.3326860552
_cell_length_b        11.4834144000
_cell_length_c        16.5437347182
_cell_angle_alpha        90.0006
_cell_angle_beta        86.7632
_cell_angle_gamma        90.0011
_cell_volume          1201.155322
_space_group_crystal_system monoclinic
_space_group_IT_number 14
_space_group_name_H-M_alt 'P2_1/c'
_space_group_name_Hall '-P 2ybc'
loop_
_symmetry_equiv_pos_site_id
_symmetry_equiv_pos_as_xyz
 1 'x,y,z'
 2 '-x,-y,-z'
 3 '-x,-1/2+y,-1/2-z'
 4 'x,-1/2-y,-1/2+z'
loop_
_atom_site_label
_atom_site_type_symbol
_atom_site_fract_x
_atom_site_fract_y
_atom_site_fract_z
H1    H     0.98411561923243 0.67959833026046 0.36565911014854 
H2    H     0.03102086026515 0.75709956983487 0.50110557027112 
H3    H     0.37245907059618 0.73553507995786 0.56567800984017 
H4    H     0.66441665004825 0.62292769039418 0.49492081004757 
H5    H     0.79372094960391 0.49923857011307 0.38556943028019 
H6    H     0.01968194988010 0.75820194020570 0.26421858007870 
H7    H     0.73079200076373 0.39178614982368 0.25962127000500 
H8    H     0.51942040050540 0.34280038965972 0.15148471011169 
H9    H     0.19827468991012 0.36705854038386 0.07493780017636 
H10   H     0.72697142936890 0.78925315034131 0.17822726979520 
H11   H     0.87095148924267 0.46840511033342 0.05276590007022 
H12   H     0.63539647071506 0.63859232966233 0.07591161998368 
C1    C     0.13781083946848 0.67147876963119 0.39086255986110 
C2    C     0.30324506978150 0.61177096969160 0.34659410995046 
C3    C     0.28238581952587 0.56190258015804 0.26666614008087 
C4    C     0.16286082948895 0.71460677978793 0.46787214006762 
C5    C     0.49375371943556 0.59122652964611 0.38775370029441 
C6    C     0.11452960020690 0.58998054965746 0.21352226016062 
C7    C     0.43300839053471 0.47654934035584 0.23982681027914 
C8    C     0.35604824063670 0.70175429998009 0.50490066994116 
C9    C     0.51798643060883 0.63994010985354 0.46534252027832 
C10   C     0.07868614992659 0.51358313968991 0.14691457022533 
C11   C     0.65124864988402 0.51454949989201 0.35323617004893 
C12   C     0.98653314972741 0.69143043012080 0.22031886991223 
C13   C     0.61679178019626 0.45558431978885 0.28368256998795 
C14   C     0.40183253942457 0.40849593964509 0.16930214997169 
C15   C     0.22528178036927 0.42240354988532 0.12674802978054 
C16   C     0.82056684040613 0.71007380991342 0.17085370994184 
C17   C     0.90192565032180 0.53152906024283 0.09975228973059 
C18   C     0.77190425050044 0.62705953988815 0.11219821975028 
