data_stdin
_audit_creation_method 'critic2'
_audit_creation_date 2023-8-11
_chemical_formula_sum 'C18 H12'
_cell_formula_units_Z 4
_cell_length_a         3.9119842230
_cell_length_b        15.1626258407
_cell_length_c        20.1756350170
_cell_angle_alpha        89.9983
_cell_angle_beta        81.6243
_cell_angle_gamma        90.0052
_cell_volume          1183.972956
_space_group_crystal_system monoclinic
_space_group_IT_number 14
_space_group_name_H-M_alt 'P2_1/c'
_space_group_name_Hall '-P 2ybc'
loop_
_symmetry_equiv_pos_site_id
_symmetry_equiv_pos_as_xyz
 1 'x,y,z'
 2 '-x,-y,-z'
 3 '-x,-1/2+y,-1/2-z'
 4 'x,-1/2-y,-1/2+z'
loop_
_atom_site_label
_atom_site_type_symbol
_atom_site_fract_x
_atom_site_fract_y
_atom_site_fract_z
H1    H     0.57478341294152 0.41786552010778 0.47580562736368 
H2    H     0.69580946269587 0.48080159291469 0.58092270472542 
H3    H     0.93905336929839 0.38766307700140 0.66480266628659 
H4    H     0.02189638851512 0.22723672738953 0.64289217157073 
H5    H     0.95830518249178 0.09891778140364 0.57736030081361 
H6    H     0.88851731057931 0.41765265664867 0.39392166022290 
H7    H     0.76392516212011 0.02878766404250 0.47799602049565 
H8    H     0.55225826517816 0.03634848923594 0.37502000114539 
H9    H     0.39375178619400 0.12063201172259 0.27820640392412 
H10   H     0.78974816139814 0.49419577256288 0.29248925856650 
H11   H     0.38494688290024 0.25633842414080 0.21797197542343 
H12   H     0.51637436707200 0.41611973977355 0.20421889408953 
C1    C     0.69457395160290 0.37631894294716 0.50956854162903 
C2    C     0.75918399277849 0.28625632443320 0.49337682511008 
C3    C     0.70051495338986 0.24559317670233 0.43081974967638 
C4    C     0.75687117564033 0.41186283599260 0.56981521796906 
C5    C     0.86465742685401 0.23196789864439 0.54508301774831 
C6    C     0.65952541952475 0.29342243630983 0.37013871350368 
C7    C     0.68248849522416 0.15211289705868 0.42881215301224 
C8    C     0.88796243961665 0.35923739257483 0.61767132315525 
C9    C     0.93676668818903 0.27033052240998 0.60535859324656 
C10   C     0.53844505043074 0.24715715572770 0.31594973204315 
C11   C     0.87664286201323 0.13861155032052 0.53741956507973 
C12   C     0.75572467486765 0.38288137398226 0.35824557440351 
C13   C     0.77326201373642 0.10023960495136 0.48253942322338 
C14   C     0.57382884987776 0.10802327257528 0.37300196047412 
C15   C     0.48975043237153 0.15404467835380 0.31961167536476 
C16   C     0.70684477021476 0.42589565761621 0.29986841479806 
C17   C     0.48325971592403 0.29314894096734 0.25749036034923 
C18   C     0.56026397477926 0.38165690313084 0.24958841020986 
