data_stdin
_audit_creation_method 'critic2'
_audit_creation_date 2023-8-11
_chemical_formula_sum 'C18 H12'
_cell_formula_units_Z 4
_cell_length_a         8.1848450240
_cell_length_b         7.6005608801
_cell_length_c        20.2358281121
_cell_angle_alpha        90.0003
_cell_angle_beta        69.4020
_cell_angle_gamma        90.0007
_cell_volume          1178.382469
_space_group_crystal_system monoclinic
_space_group_IT_number 14
_space_group_name_H-M_alt 'P2_1/c'
_space_group_name_Hall '-P 2ybc'
loop_
_symmetry_equiv_pos_site_id
_symmetry_equiv_pos_as_xyz
 1 'x,y,z'
 2 '-x,-y,-z'
 3 '-x,-1/2+y,-1/2-z'
 4 'x,-1/2-y,-1/2+z'
loop_
_atom_site_label
_atom_site_type_symbol
_atom_site_fract_x
_atom_site_fract_y
_atom_site_fract_z
H1    H     0.13596949988913 0.21056348973147 0.06455285998073 
H2    H     0.92427150039934 0.17406586949681 0.18277106996473 
H3    H     0.80650884071598 0.43530432011213 0.26016159976317 
H4    H     0.92453624952805 0.73167076969643 0.21735409016356 
H5    H     0.11968546999054 0.92001094033332 0.13124185998696 
H6    H     0.09694454049104 0.21579611969311 0.98100113010882 
H7    H     0.34999076937548 0.96456027963240 0.01381198002293 
H8    H     0.53884418016738 0.86034950935511 0.90515618018952 
H9    H     0.65402893996856 0.62319812993577 0.81682719985714 
H10   H     0.20689943044409 0.99335860937430 0.89012091977628 
H11   H     0.63340877051732 0.33201446034870 0.77599390978594 
H12   H     0.48230065018451 0.04395074040143 0.78698276984974 
C1    C     0.08364409054618 0.32760161032400 0.09518700989166 
C2    C     0.14457935937426 0.49610741029812 0.06668562002783 
C3    C     0.26508673926942 0.52684764952633 0.99522259019661 
C4    C     0.96549263071427 0.30618702939099 0.16299332978797 
C5    C     0.09007525051992 0.64187756008870 0.11455733977303 
C6    C     0.31409699034050 0.39704879022688 0.93881357000741 
C7    C     0.34391105972756 0.69594782010601 0.97956514991562 
C8    C     0.90187768052497 0.45250485957278 0.20726842991659 
C9    C     0.96664743037875 0.61702985958159 0.18329365022709 
C10   C     0.46057321033695 0.43214643030432 0.87562909001789 
C11   C     0.16322938984469 0.81179946949965 0.09381918018738 
C12   C     0.22201964974747 0.23837742003575 0.93970177974039 
C13   C     0.28943831031157 0.83628661021000 0.02934251015164 
C14   C     0.48133571978510 0.72935849937511 0.91415094009689 
C15   C     0.54314571007998 0.59980477003169 0.86514502996280 
C16   C     0.28109003971845 0.11412612007224 0.88660335981275 
C17   C     0.51928161015093 0.30239105025494 0.82236699995756 
C18   C     0.43420764942567 0.14322646972011 0.82808434008698 
