data_stdin
_audit_creation_method 'critic2'
_audit_creation_date 2023-8-11
_chemical_formula_sum 'C18 H12'
_cell_formula_units_Z 4
_cell_length_a        19.3443615942
_cell_length_b         3.7960634183
_cell_length_c        15.3763643751
_cell_angle_alpha        89.9643
_cell_angle_beta        90.0029
_cell_angle_gamma        89.9980
_cell_volume          1129.123478
_space_group_crystal_system monoclinic
_space_group_IT_number 14
_space_group_name_H-M_alt 'P2_1/c'
_space_group_name_Hall '-P 2ybc'
loop_
_symmetry_equiv_pos_site_id
_symmetry_equiv_pos_as_xyz
 1 'x,y,z'
 2 '-x,-y,-z'
 3 '-1/2+x,-1/2-y,-1/2-z'
 4 '-1/2-x,-1/2+y,-1/2+z'
loop_
_atom_site_label
_atom_site_type_symbol
_atom_site_fract_x
_atom_site_fract_y
_atom_site_fract_z
H1    H     0.28427560988099 0.19886729064862 0.29263533984169 
H2    H     0.71571036976895 0.69886317014484 0.20727531021258 
H3    H     0.39634603989390 0.14091499059841 0.22189683996995 
H4    H     0.60362652984899 0.64113296086210 0.27800524988181 
H5    H     0.49717140003703 0.88713396029313 0.30257635003653 
H6    H     0.50280309980582 0.38743322982680 0.19739496026331 
H7    H     0.48401668002651 0.73201131055195 0.45840922026245 
H8    H     0.51598320007922 0.23197983992274 0.04163316970100 
H9    H     0.41581706994765 0.72492878058568 0.59133394000622 
H10   H     0.58421059976464 0.22449456934302 0.90873858021606 
H11   H     0.30830888985996 0.88296797104998 0.66913243004417 
H12   H     0.69173526974942 0.38225751912174 0.83089926030022 
C1    C     0.32646027978452 0.07749797976701 0.32827265977029 
C2    C     0.67352849015352 0.57748628904055 0.17167563020324 
C3    C     0.31587516020979 0.97204096936361 0.41571601980335 
C4    C     0.68412622010844 0.47190462097463 0.08427384009277 
C5    C     0.25001100986627 0.00012686873229 0.45980469004781 
C6    C     0.39032890016598 0.04945557894565 0.28861178976377 
C7    C     0.60965202008640 0.54958505944211 0.21132758024604 
C8    C     0.37547404019636 0.86159774115672 0.46395355987457 
C9    C     0.62453062014922 0.36143367039457 0.03606649027778 
C10   C     0.25002275998078 0.00020300956030 0.55203169996785 
C11   C     0.44717067004576 0.91144309072156 0.33442187973337 
C12   C     0.55281135012194 0.41160344068829 0.16555493010507 
C13   C     0.43968011997351 0.82284581036587 0.42095984011784 
C14   C     0.56031493005257 0.32284320127387 0.07905674029733 
C15   C     0.37033821976877 0.81377314061189 0.55570707030104 
C16   C     0.62968382008513 0.31339301995208 0.94433813000135 
C17   C     0.31076413985590 0.89918602894126 0.59843561969009 
C18   C     0.68926818025099 0.39864987127422 0.90158798022205 
