data_stdin
_audit_creation_method 'critic2'
_audit_creation_date 2023-8-11
_chemical_formula_sum 'C18 H12'
_cell_formula_units_Z 4
_cell_length_a         4.6787517361
_cell_length_b        14.2058633303
_cell_length_c        18.4204209748
_cell_angle_alpha        89.9999
_cell_angle_beta        79.4304
_cell_angle_gamma        89.9985
_cell_volume          1203.553043
_space_group_crystal_system monoclinic
_space_group_IT_number 14
_space_group_name_H-M_alt 'P2_1/c'
_space_group_name_Hall '-P 2ybc'
loop_
_symmetry_equiv_pos_site_id
_symmetry_equiv_pos_as_xyz
 1 'x,y,z'
 2 '-x,-y,-z'
 3 '-x,-1/2+y,-1/2-z'
 4 'x,-1/2-y,-1/2+z'
loop_
_atom_site_label
_atom_site_type_symbol
_atom_site_fract_x
_atom_site_fract_y
_atom_site_fract_z
H1    H     0.86534267968119 0.00892571991941 0.78565372984910 
H2    H     0.14831384973948 0.09030202000898 0.86514769024335 
H3    H     0.36143958919037 0.00215784016216 0.95915532987431 
H4    H     0.25665823881146 0.83117651022424 0.97712219021279 
H5    H     0.00050968910954 0.69223397980127 0.95152322998714 
H6    H     0.03384435971143 0.96231231967226 0.69131982002930 
H7    H     0.67162903004852 0.61023116992391 0.87982979027728 
H8    H     0.40459926063720 0.60467665974477 0.78429884974692 
H9    H     0.25783716897550 0.67151848992310 0.67192047004977 
H10   H     0.92750355968847 0.01432108033688 0.57340038980011 
H11   H     0.32396198030852 0.78565330983049 0.57496266978456 
H12   H     0.56428142041243 0.92775698009776 0.51384893024253 
C1    C     0.96447261947978 0.96776287997992 0.82393605016578 
C2    C     0.91919848028133 0.86905072021591 0.82834474021000 
C3    C     0.76878783924889 0.81591872034569 0.77948764016328 
C4    C     0.11841744009361 0.01445984022933 0.87028276995107 
C5    C     0.01382195945823 0.82140150968372 0.88846713982379 
C6    C     0.71779818935139 0.84881391986138 0.70825051985458 
C7    C     0.66818742900712 0.72434272021674 0.80244553026498 
C8    C     0.23594251025416 0.96496736992437 0.92403392006805 
C9    C     0.17866349080186 0.87013592997123 0.93365272012861 
C10   C     0.52747463890066 0.79582500031937 0.67061033012262 
C11   C     0.92953173909330 0.72632381968987 0.90488847989862 
C12   C     0.86330362010786 0.92654890986651 0.66945080011377 
C13   C     0.75075313971285 0.68124387026622 0.86539644003484 
C14   C     0.48314613991119 0.67331376030680 0.76302931997427 
C15   C     0.40450682986550 0.70957162981793 0.70104179977603 
C16   C     0.80847004083741 0.95472449999636 0.60132135011032 
C17   C     0.47336825920129 0.82653046997337 0.60136889024161 
C18   C     0.60782958051833 0.90556617973110 0.56731563990241 
