data_stdin
_audit_creation_method 'critic2'
_audit_creation_date 2023-8-11
_chemical_formula_sum 'C18 H12'
_cell_formula_units_Z 4
_cell_length_a        14.8786134400
_cell_length_b         8.2554339200
_cell_length_c         9.8355803504
_cell_angle_alpha        90.0000
_cell_angle_beta        90.0006
_cell_angle_gamma        90.0000
_cell_volume          1208.098532
_space_group_crystal_system orthorhombic
_space_group_IT_number 19
_space_group_name_H-M_alt 'P2_12_12_1'
_space_group_name_Hall 'P 2ac 2ab'
loop_
_symmetry_equiv_pos_site_id
_symmetry_equiv_pos_as_xyz
 1 'x,y,z'
 2 '-1/2+x,-1/2-y,-z'
 3 '-x,-1/2+y,-1/2-z'
 4 '-1/2-x,-y,-1/2+z'
loop_
_atom_site_label
_atom_site_type_symbol
_atom_site_fract_x
_atom_site_fract_y
_atom_site_fract_z
H1    H     0.74855011565155 0.11234952199033 0.37093061635629 
H2    H     0.74574720672698 0.01188897142551 0.60419269703187 
H3    H     0.86443437523409 0.09630409909575 0.77029486694525 
H4    H     0.99270873472026 0.26332204691753 0.68911152644850 
H5    H     0.07584909958926 0.39065302884284 0.50848714944320 
H6    H     0.69064006295157 0.31872390525929 0.31162012428991 
H7    H     0.09276894251203 0.45387894248257 0.26304149628089 
H8    H     0.03779196668535 0.45285348212651 0.03623996964545 
H9    H     0.91531636159794 0.41413669257595 0.86874698932980 
H10   H     0.56816161418854 0.32708644113687 0.14462373895290 
H11   H     0.75843401078516 0.36809609583976 0.81918792299628 
H12   H     0.60070589705788 0.34035988255711 0.89726752337097 
C1    C     0.79980550767380 0.15387606467942 0.44135561490594 
C2    C     0.86903158941167 0.25781820959019 0.39386515089891 
C3    C     0.87370318004430 0.31986226259887 0.25617389434946 
C4    C     0.79842805038832 0.09562936730328 0.57323970270944 
C5    C     0.94192509043516 0.28971696016748 0.48550102312584 
C6    C     0.79835161674111 0.32536742116143 0.16266304429058 
C7    C     0.95800231662670 0.37845684290142 0.20946407432839 
C8    C     0.86639310280443 0.13971222136134 0.66576812788997 
C9    C     0.93717789814796 0.23398317870219 0.62124913957255 
C10   C     0.81547424554192 0.35236478419552 0.02079120490808 
C11   C     0.02119452882104 0.36771927268549 0.43725972308537 
C12   C     0.70686657010033 0.31982441331302 0.20393158570299 
C13   C     0.03039889745023 0.40334749429664 0.30248057436923 
C14   C     0.97159389427486 0.41266704192811 0.06881497835516 
C15   C     0.90404456676533 0.39193676410324 0.97658803976204 
C16   C     0.63767145911973 0.32660769956370 0.11015980218497 
C17   C     0.74346344036944 0.35104288541170 0.92664119929154 
C18   C     0.65571725055373 0.33663457003369 0.97000995575917 
