data_stdin
_audit_creation_method 'critic2'
_audit_creation_date 2023-8-11
_chemical_formula_sum 'C18 H12'
_cell_formula_units_Z 4
_cell_length_a         7.9154008600
_cell_length_b        20.7046488603
_cell_length_c         7.2926689117
_cell_angle_alpha        90.0034
_cell_angle_beta        90.0000
_cell_angle_gamma        89.9999
_cell_volume          1195.163384
_space_group_crystal_system orthorhombic
_space_group_IT_number 19
_space_group_name_H-M_alt 'P2_12_12_1'
_space_group_name_Hall 'P 2ac 2ab'
loop_
_symmetry_equiv_pos_site_id
_symmetry_equiv_pos_as_xyz
 1 'x,y,z'
 2 '-x,-1/2+y,-1/2-z'
 3 '-1/2-x,-y,-1/2+z'
 4 '-1/2+x,-1/2-y,-z'
loop_
_atom_site_label
_atom_site_type_symbol
_atom_site_fract_x
_atom_site_fract_y
_atom_site_fract_z
H1    H     0.90903262182292 0.47384065441463 0.76657315835254 
H2    H     0.95887821569183 0.58942261355411 0.81339652177794 
H3    H     0.72109740125621 0.66295749596188 0.89136449742460 
H4    H     0.42722535652860 0.61990834615821 0.89535835583450 
H5    H     0.22873559885158 0.53280658660906 0.83842911185789 
H6    H     0.91095572915053 0.41183127164804 0.98061937739147 
H7    H     0.17489486000068 0.42036423837368 0.73687986306919 
H8    H     0.27315441267909 0.31506500813961 0.65136815598877 
H9    H     0.50063932645640 0.23367659400185 0.62561032243194 
H10   H     0.11806949342960 0.32457817064990 0.00004094571701 
H11   H     0.78475762731125 0.19830431100206 0.70450401471384 
H12   H     0.06110794873368 0.21757621503761 0.85710898539269 
C1    C     0.80403501601037 0.50455525085427 0.80571897702918 
C2    C     0.64006787732437 0.47745864217034 0.82013576236512 
C3    C     0.60488509315265 0.40928007539528 0.79755142239179 
C4    C     0.83190465485745 0.56996639746189 0.82889996006511 
C5    C     0.50158980339932 0.52147700456282 0.84242159941296 
C6    C     0.72987839265649 0.35862041469217 0.81626520948952 
C7    C     0.43711421733981 0.39102259944800 0.75242297067232 
C8    C     0.69705708002154 0.61182795641715 0.86952832191926 
C9    C     0.53448898823706 0.58774678516097 0.87396826161409 
C10   C     0.69186361186723 0.29520038409531 0.74842562824362 
C11   C     0.33259962428451 0.49889055948702 0.82025357732774 
C12   C     0.88517969834817 0.36670278004420 0.91029510928082 
C13   C     0.30268633773212 0.43674905963386 0.76663683659022 
C14   C     0.40229478999526 0.32698031431653 0.69054082105082 
C15   C     0.52725620061840 0.28166457849346 0.67917463965745 
C16   C     0.00118547668593 0.31699568303800 0.92450118284580 
C17   C     0.81506475634878 0.24575682407033 0.76019849339834 
C18   C     0.96859072387164 0.25628767800398 0.84501304811391 
