data_stdin
_audit_creation_method 'critic2'
_audit_creation_date 2023-8-11
_chemical_formula_sum 'C18 H12'
_cell_formula_units_Z 4
_cell_length_a        16.1545093831
_cell_length_b         5.0714911608
_cell_length_c        18.2921910662
_cell_angle_alpha        89.9997
_cell_angle_beta        53.9861
_cell_angle_gamma        89.9995
_cell_volume          1212.205253
_space_group_crystal_system monoclinic
_space_group_IT_number 14
_space_group_name_H-M_alt 'P2_1/c'
_space_group_name_Hall '-P 2ybc'
loop_
_symmetry_equiv_pos_site_id
_symmetry_equiv_pos_as_xyz
 1 'x,y,z'
 2 '-x,-y,-z'
 3 '-x,-1/2+y,-1/2-z'
 4 'x,-1/2-y,-1/2+z'
loop_
_atom_site_label
_atom_site_type_symbol
_atom_site_fract_x
_atom_site_fract_y
_atom_site_fract_z
H1    H     0.17923252983997 0.23406145983272 0.90021506996559 
H2    H     0.23978068000903 0.90265654012583 0.78191456026781 
H3    H     0.38192343025012 0.59575919911035 0.74205640987492 
H4    H     0.47328078980090 0.66044827062099 0.81179396994339 
H5    H     0.50339812012133 0.91642598017405 0.90587280996779 
H6    H     0.07111154014688 0.15585040081767 0.02575692013644 
H7    H     0.45725334974036 0.28718724996638 0.01175518014081 
H8    H     0.34615090039417 0.63517745046076 0.10553276980045 
H9    H     0.18572823977257 0.89363861059008 0.17478370004532 
H10   H     0.90658871950077 0.37836951027139 0.11080963033548 
H11   H     0.01900754994319 0.94507291036851 0.20805683999599 
H12   H     0.87910359015281 0.78589556906223 0.20091586000433 
C1    C     0.23978408969789 0.10071636904528 0.88538526027595 
C2    C     0.28423238034749 0.12819434928702 0.93263716968993 
C3    C     0.24793374031725 0.31196345065857 0.00644450968280 
C4    C     0.27496923959993 0.91552465949611 0.81752935027464 
C5    C     0.37461285993924 0.97618608064247 0.90000860974137 
C6    C     0.14735213013253 0.43311113024451 0.05831456020767 
C7    C     0.31523892971367 0.37706561968964 0.02977393029981 
C8    C     0.35659074984462 0.74667820005297 0.79335163004414 
C9    C     0.40679238032288 0.78106518911993 0.83298791976279 
C10   C     0.12755303024842 0.65047155988939 0.11685505971738 
C11   C     0.43443987991593 0.03209299934556 0.93212666018456 
C12   C     0.06337767021357 0.33731787908481 0.06059143967816 
C13   C     0.40838116030851 0.23471863037911 0.99113734966439 
C14   C     0.29087865989437 0.58616876049143 0.09171421982135 
C15   C     0.20244771007283 0.72707136924640 0.13050233025258 
C16   C     0.96888712009580 0.46064285058332 0.11075583014823 
C17   C     0.03126751989182 0.77781397098352 0.16550360018350 
C18   C     0.95312331969692 0.68717063944085 0.16184774007940 
