data_stdin
_audit_creation_method 'critic2'
_audit_creation_date 2023-8-11
_chemical_formula_sum 'C18 H12'
_cell_formula_units_Z 8
_cell_length_a        16.9143417004
_cell_length_b         7.0467102071
_cell_length_c        20.8233589475
_cell_angle_alpha        89.9976
_cell_angle_beta        73.5346
_cell_angle_gamma        89.9985
_cell_volume          2380.163578
_space_group_crystal_system monoclinic
_space_group_IT_number 15
_space_group_name_H-M_alt 'C2/c'
_space_group_name_Hall '-C 2yc'
loop_
_symmetry_equiv_pos_site_id
_symmetry_equiv_pos_as_xyz
 1 'x,y,z'
 2 '-x,-y,-z'
 3 '-x,y,-1/2-z'
 4 'x,-y,-1/2+z'
 5 '-1/2+x,-1/2+y,z'
 6 '-1/2-x,-1/2-y,-z'
 7 '-1/2-x,-1/2+y,-1/2-z'
 8 '-1/2+x,-1/2-y,-1/2+z'
loop_
_atom_site_label
_atom_site_type_symbol
_atom_site_fract_x
_atom_site_fract_y
_atom_site_fract_z
H1    H     0.34808484992319 0.09542419046456 0.74316946977481 
H2    H     0.31607643029647 0.13383587956552 0.63704391986222 
H3    H     0.17240602007771 0.20825842997555 0.63456717007896 
H4    H     0.06101035000960 0.22648495986902 0.74136270996764 
H5    H     0.01232880015251 0.19416850001382 0.86237747007680 
H6    H     0.38120669031351 0.30576948048745 0.79472602986383 
H7    H     0.03975735026267 0.10178700070225 0.96887361008534 
H8    H     0.13177263019816 0.99295975957500 0.03014155018529 
H9    H     0.27292520986417 0.93669224004025 0.03883376018928 
H10   H     0.51810970006666 0.29918550993915 0.81336879002821 
H11   H     0.42058898998980 0.98120589026368 0.99469506010445 
H12   H     0.54068979984565 0.12377956965621 0.91048215010005 
C1    C     0.28579822002760 0.13416310067013 0.74392695010912 
C2    C     0.22431403006088 0.15113392060420 0.80614734992829 
C3    C     0.24037649995502 0.12656894992804 0.87038320006549 
C4    C     0.26735140013347 0.15209746988687 0.68366884021982 
C5    C     0.14093327011944 0.17647968950164 0.80401816987021 
C6    C     0.32164697029555 0.13185920021092 0.88044483974770 
C7    C     0.17231142997332 0.08944887006005 0.92704223996709 
C8    C     0.18635362977712 0.19035458019389 0.68210136023423 
C9    C     0.12440445015442 0.20130947063133 0.74163959006766 
C10   C     0.33310251014032 0.05279502975039 0.94065734993548 
C11   C     0.07503316025143 0.16761336052793 0.86441698998392 
C12   C     0.39024519003068 0.22390653053559 0.83621203980925 
C13   C     0.09019482969243 0.11763755018850 0.92317593013430 
C14   C     0.18545580975681 0.02267157995038 0.98793261999131 
C15   C     0.26322135987522 0.99413635949134 0.99317135977766 
C16   C     0.46718246999877 0.22278972053153 0.84723635013911 
C17   C     0.41310941015250 0.04594824998263 0.94926078024441 
C18   C     0.47959442028929 0.12731973975298 0.90297669989411 
