data_stdin
_audit_creation_method 'critic2'
_audit_creation_date 2023-8-11
_chemical_formula_sum 'C18 H12'
_cell_formula_units_Z 2
_cell_length_a        10.2765048493
_cell_length_b        11.2593117339
_cell_length_c         5.7030318823
_cell_angle_alpha        75.9124
_cell_angle_beta        98.8114
_cell_angle_gamma        74.9705
_cell_volume           601.432664
_space_group_crystal_system triclinic
_space_group_IT_number 2
_space_group_name_H-M_alt 'P-1'
_space_group_name_Hall '-P 1'
loop_
_symmetry_equiv_pos_site_id
_symmetry_equiv_pos_as_xyz
 1 'x,y,z'
 2 '-x,-y,-z'
loop_
_atom_site_label
_atom_site_type_symbol
_atom_site_fract_x
_atom_site_fract_y
_atom_site_fract_z
H1    H     0.99847791017932 0.94322335040732 0.68340109936542 
H2    H     0.87612464987298 0.08545817015194 0.89062949943809 
H3    H     0.64567983012396 0.07755999977134 0.97232992023820 
H4    H     0.53142630954991 0.93844849995175 0.79770265011882 
H5    H     0.52469290059391 0.79529661954904 0.54735838040055 
H6    H     0.12572707048201 0.77328937956321 0.85866938065549 
H7    H     0.63298701960736 0.67196579004529 0.28289297908694 
H8    H     0.82082890955275 0.59539902005045 0.10926401997640 
H9    H     0.06726638018583 0.55631583963504 0.08824733082576 
H10   H     0.37273883021052 0.70437949048087 0.87468880985786 
H11   H     0.29580762032942 0.55712046954039 0.25512076083516 
H12   H     0.46168684019218 0.60089351971263 0.56455877010562 
C1    C     0.90000854021552 0.93496927028219 0.71891471010326 
C2    C     0.84313033048335 0.84687700007352 0.63378707082705 
C3    C     0.91330179052952 0.75687312964450 0.51532075006001 
C4    C     0.82990668024939 0.01688482998923 0.83563205083145 
C5    C     0.70383710030321 0.85473995006243 0.65401460057200 
C6    C     0.06148336963168 0.71679648012241 0.53309843035337 
C7    C     0.83153509003260 0.70253940007861 0.37523596045780 
C8    C     0.69897180030366 0.01455030001735 0.87604316046088 
C9    C     0.63638763967801 0.93588903000562 0.78218070996013 
C10   C     0.11504553011900 0.64639245994983 0.37182255037041 
C11   C     0.63113727056348 0.78603701956212 0.53331338038261 
C12   C     0.16012508021716 0.73297277018650 0.71628959953518 
C13   C     0.69072399018738 0.71827191002687 0.38815425029648 
C14   C     0.88898987016870 0.63072359988153 0.22110742941670 
C15   C     0.02458238969948 0.60816271021893 0.21103059908268 
C16   C     0.30075044007032 0.69162143002363 0.72841626922910 
C17   C     0.25901225940934 0.60852266035110 0.38309729988495 
C18   C     0.35108049002599 0.63169186971737 0.55637886928381 
