data_stdin
_audit_creation_method 'critic2'
_audit_creation_date 2023-8-11
_chemical_formula_sum 'C18 H12'
_cell_formula_units_Z 4
_cell_length_a         9.3602353566
_cell_length_b         9.6238896300
_cell_length_c        14.3652547784
_cell_angle_alpha        90.0000
_cell_angle_beta        66.3495
_cell_angle_gamma        89.9999
_cell_volume          1185.360811
_space_group_crystal_system monoclinic
_space_group_IT_number 14
_space_group_name_H-M_alt 'P2_1/c'
_space_group_name_Hall '-P 2ybc'
loop_
_symmetry_equiv_pos_site_id
_symmetry_equiv_pos_as_xyz
 1 'x,y,z'
 2 '-x,-y,-z'
 3 '-x,-1/2+y,-1/2-z'
 4 'x,-1/2-y,-1/2+z'
loop_
_atom_site_label
_atom_site_type_symbol
_atom_site_fract_x
_atom_site_fract_y
_atom_site_fract_z
H1    H     0.85295028955113 0.26594066012927 0.45180364029179 
H2    H     0.71170020033821 0.04590890971442 0.49311610973525 
H3    H     0.43038649066090 0.03902470051638 0.60965415964502 
H4    H     0.29722900008316 0.25715966028722 0.69231010978257 
H5    H     0.30648890973593 0.49917382964664 0.72947681004232 
H6    H     0.87264949989131 0.37733116024238 0.33842440001035 
H7    H     0.45811297935367 0.71725410014426 0.71026423030450 
H8    H     0.68567189032465 0.85140634047742 0.62973149984198 
H9    H     0.95057027034522 0.88647021022922 0.49419882987409 
H10   H     0.11383454029032 0.43075875012419 0.19478002986911 
H11   H     0.15712270014785 0.81113261948721 0.33889161032751 
H12   H     0.26468263006420 0.64625646016717 0.19442300029759 
C1    C     0.72918400975844 0.26744083042901 0.49963421017281 
C2    C     0.65517864956027 0.39523107007545 0.54062000019383 
C3    C     0.73249272052292 0.52920011954819 0.51709103980803 
C4    C     0.65003753054355 0.14229836987198 0.52428867981636 
C5    C     0.49790276049991 0.38755727958499 0.61552299986610 
C6    C     0.87545573013087 0.55727599026088 0.42900233997432 
C7    C     0.66181015980544 0.64131422022947 0.58412815036963 
C8    C     0.49160815979889 0.13790638027854 0.59112446999773 
C9    C     0.41762551941663 0.25905130949038 0.63657610015239 
C10   C     0.95514655024792 0.68645416042804 0.42330832972450 
C11   C     0.42613977968506 0.50758687991977 0.67336146981575 
C12   C     0.93659448992242 0.46927488961570 0.34259590012301 
C13   C     0.50835504946915 0.62806662002766 0.66145533031139 
C14   C     0.74255967028924 0.76973937043896 0.57475839029455 
C15   C     0.88730454960335 0.78955397989413 0.49968237027253 
C16   C     0.07290621940062 0.50065460001087 0.25993721015317 
C17   C     0.09688110072019 0.71410999969997 0.33933115966074 
C18   C     0.15672561047030 0.62235094986038 0.25912003966303 
