data_stdin
_audit_creation_method 'critic2'
_audit_creation_date 2023-8-11
_chemical_formula_sum 'C18 H12'
_cell_formula_units_Z 8
_cell_length_a        21.9364187095
_cell_length_b        10.2445903122
_cell_length_c        11.5407710340
_cell_angle_alpha        90.0023
_cell_angle_beta        66.4191
_cell_angle_gamma        90.0035
_cell_volume          2376.982083
_space_group_crystal_system monoclinic
_space_group_IT_number 15
_space_group_name_H-M_alt 'C2/c'
_space_group_name_Hall '-C 2yc'
loop_
_symmetry_equiv_pos_site_id
_symmetry_equiv_pos_as_xyz
 1 'x,y,z'
 2 '-1/2-x,-1/2-y,-z'
 3 '-1/2-x,-1/2+y,-1/2-z'
 4 'x,-y,-1/2+z'
 5 '-1/2+x,-1/2+y,z'
 6 '-x,-y,-z'
 7 '-x,y,-1/2-z'
 8 '-1/2+x,-1/2-y,-1/2+z'
loop_
_atom_site_label
_atom_site_type_symbol
_atom_site_fract_x
_atom_site_fract_y
_atom_site_fract_z
H1    H     0.02166361011394 0.42881986965510 0.82800410002004 
H2    H     0.96043807990179 0.39021858021509 0.05241576995756 
H3    H     0.98386328991993 0.19294174961732 0.15651788003837 
H4    H     0.05969368998864 0.02224343022976 0.02241862040086 
H5    H     0.12573021988253 0.93402255000646 0.81483850975701 
H6    H     0.10786147992322 0.51956281958024 0.77119475026143 
H7    H     0.17871899991899 0.96009665963462 0.58133810990498 
H8    H     0.21091580978994 0.09028424027612 0.39684245042284 
H9    H     0.22118364977515 0.30465952036822 0.29007068032962 
H10   H     0.13483558986412 0.73067119034860 0.66518995006345 
H11   H     0.21199513971934 0.53933600019411 0.30355580044592 
H12   H     0.18444970992042 0.74397605970292 0.42911419978278 
C1    C     0.03371975989508 0.34302698022487 0.86981265972483 
C2    C     0.08221326990127 0.25370926968955 0.79225152972918 
C3    C     0.12375828010132 0.27565171966416 0.65979609001327 
C4    C     0.99831427001363 0.32050417998037 0.99747083027644 
C5    C     0.08714497996831 0.13154193002640 0.84872182027006 
C6    C     0.13867410018715 0.40319896996048 0.60039644000981 
C7    C     0.15446086977551 0.16535349032039 0.58455664006390 
C8    C     0.01021259011491 0.20804373988007 0.05515676991973 
C9    C     0.05307516977003 0.11374017024153 0.98085168025501 
C10   C     0.17252783978295 0.41181257977961 0.46538514008697 
C11   C     0.12376490973373 0.02676776992717 0.77033362028890 
C12   C     0.12731397014753 0.52225650953152 0.66886650981132 
C13   C     0.15302931007103 0.04141479994561 0.64208486020267 
C14   C     0.18897120979892 0.17789009955991 0.45094523024157 
C15   C     0.19526233975103 0.29591120001674 0.39234338044772 
C16   C     0.14394677985983 0.64192398955593 0.60880269966105 
C17   C     0.18738870977734 0.53571723968767 0.40623321002286 
C18   C     0.17290007988934 0.64951627975209 0.47602212987162 
