data_stdin
_audit_creation_method 'critic2'
_audit_creation_date 2023-8-11
_chemical_formula_sum 'C18 H12'
_cell_formula_units_Z 4
_cell_length_a        10.8508619329
_cell_length_b         8.0670948300
_cell_length_c        15.1849707083
_cell_angle_alpha        90.0000
_cell_angle_beta        65.5754
_cell_angle_gamma        89.9998
_cell_volume          1210.259220
_space_group_crystal_system monoclinic
_space_group_IT_number 14
_space_group_name_H-M_alt 'P2_1/c'
_space_group_name_Hall '-P 2ybc'
loop_
_symmetry_equiv_pos_site_id
_symmetry_equiv_pos_as_xyz
 1 'x,y,z'
 2 '-x,-y,-z'
 3 '-x,-1/2+y,-1/2-z'
 4 'x,-1/2-y,-1/2+z'
loop_
_atom_site_label
_atom_site_type_symbol
_atom_site_fract_x
_atom_site_fract_y
_atom_site_fract_z
H1    H     0.75967235044561 0.32119948005314 0.57904586973524 
H2    H     0.60002295952634 0.11409556978475 0.68092072003443 
H3    H     0.35221629955628 0.16600802958770 0.74964218007554 
H4    H     0.26649514967471 0.43465784060762 0.71622947990804 
H5    H     0.30768886024553 0.71488660054763 0.65591077010893 
H6    H     0.82378964033541 0.32683830021730 0.43935316001832 
H7    H     0.46895233029631 0.94471569956905 0.58091987999048 
H8    H     0.69209965970869 0.04683379011083 0.49530766999146 
H9    H     0.93760949014360 0.00149958965555 0.39655524967916 
H10   H     0.05518443981732 0.28920107973587 0.31861202021993 
H11   H     0.11975426972114 0.81611132997189 0.30843953977626 
H12   H     0.20863456982636 0.53259962022023 0.25421346031281 
C1    C     0.65205222989788 0.34425747060277 0.60382352987543 
C2    C     0.60734316967964 0.49668584056728 0.58076324004025 
C3    C     0.69780274042985 0.62325250050222 0.52014530976114 
C4    C     0.56206548947808 0.22828854021650 0.66311690022090 
C5    C     0.46486773971253 0.53016955049989 0.62663377021178 
C6    C     0.83589774998944 0.59390795002724 0.45069331034159 
C7    C     0.64632639016477 0.78699013037928 0.52777573970674 
C8    C     0.42170309983524 0.25768258940297 0.70233287030380 
C9    C     0.37451428051153 0.40695822938997 0.68426032980308 
C10   C     0.92213098019379 0.73332895977784 0.40746572004874 
C11   C     0.41620585946533 0.69198568980371 0.62087210031045 
C12   C     0.88890720017485 0.43464075940244 0.41503744984161 
C13   C     0.50477428988439 0.81799247976330 0.57837420020313 
C14   C     0.73499265999463 0.92251788955613 0.48349238004890 
C15   C     0.86966092015414 0.89754938025905 0.42880173970953 
C16   C     0.01964031034491 0.41306333011075 0.34577039990112 
C17   C     0.05659738949488 0.70751580994418 0.33880310008362 
C18   C     0.10568838014235 0.55021095958886 0.30829166001561 
