data_stdin
_audit_creation_method 'critic2'
_audit_creation_date 2023-8-11
_chemical_formula_sum 'C18 H12'
_cell_formula_units_Z 4
_cell_length_a        17.9228312500
_cell_length_b         8.1923532627
_cell_length_c         8.2454554500
_cell_angle_alpha        90.0000
_cell_angle_beta        90.0000
_cell_angle_gamma        90.0015
_cell_volume          1210.681584
_space_group_crystal_system orthorhombic
_space_group_IT_number 33
_space_group_name_H-M_alt 'Pna2_1'
_space_group_name_Hall 'P 2c -2n'
loop_
_symmetry_equiv_pos_site_id
_symmetry_equiv_pos_as_xyz
 1 'x,y,z'
 2 '-x,-y,-1/2+z'
 3 '-1/2-x,-1/2+y,-1/2+z'
 4 '-1/2+x,-1/2-y,z'
loop_
_atom_site_label
_atom_site_type_symbol
_atom_site_fract_x
_atom_site_fract_y
_atom_site_fract_z
H1    H     0.36439500997808 0.57802146951180 0.98532953951653 
H2    H     0.24660439015895 0.71115666997956 0.06052826000804 
H3    H     0.14944652006548 0.55858281946900 0.21669926003658 
H4    H     0.16618247981715 0.26223721962208 0.26384958056495 
H5    H     0.23703382005445 0.01161833045853 0.22853436976030 
H6    H     0.45055376015719 0.57440982956969 0.14428114003275 
H7    H     0.34651700995494 0.86813364013569 0.11179031963277 
H8    H     0.46509134975842 0.86877539979409 0.97975520005562 
H9    H     0.57876541996198 0.01372166053388 0.88857000011902 
H10   H     0.56989539976408 0.70586389988584 0.08651422007709 
H11   H     0.65302342993222 0.26058827971664 0.87910457996284 
H12   H     0.67102666008240 0.55303526946422 0.94097925046777 
C1    C     0.32312469026341 0.51014657988415 0.05441039972315 
C2    C     0.33750839990685 0.34447442036762 0.09304509025084 
C3    C     0.40717738015307 0.26206758042309 0.05680272970516 
C4    C     0.25654182981373 0.58501144022161 0.09603370059807 
C5    C     0.27713981012725 0.25270585967504 0.16223839047978 
C6    C     0.47762487006419 0.34416461002367 0.02843245036895 
C7    C     0.40637571024437 0.08891775943458 0.05128309998521 
C8    C     0.20093074977419 0.49841230983795 0.18029709039300 
C9    C     0.21088699979304 0.33383283971966 0.20960323038408 
C10   C     0.53891786997944 0.25256114045294 0.96287741991599 
C11   C     0.28293740006006 0.07949224944580 0.17442668954496 
C12   C     0.49220121974834 0.50772379978702 0.07541796042622 
C13   C     0.34355166994567 0.00085962025865 0.11161994018180 
C14   C     0.46888054977047 0.00121684033197 0.98888119946107 
C15   C     0.53188108998809 0.08073966024624 0.93965162975135 
C16   C     0.56046441004773 0.58104315022333 0.04581245939377 
C17   C     0.60744721976565 0.33181211008702 0.93011083019797 
C18   C     0.61792570014869 0.49450934971699 0.96749179023211 
