data_stdin
_audit_creation_method 'critic2'
_audit_creation_date 2023-8-11
_chemical_formula_sum 'C18 H12'
_cell_formula_units_Z 1
_cell_length_a         7.4191695317
_cell_length_b         4.7788883075
_cell_length_c         8.9936169256
_cell_angle_alpha        94.9479
_cell_angle_beta       107.6337
_cell_angle_gamma        98.5512
_cell_volume           297.580336
_space_group_crystal_system triclinic
_space_group_IT_number 1
_space_group_name_H-M_alt 'P1'
_space_group_name_Hall 'P 1'
loop_
_symmetry_equiv_pos_site_id
_symmetry_equiv_pos_as_xyz
 1 'x,y,z'
loop_
_atom_site_label
_atom_site_type_symbol
_atom_site_fract_x
_atom_site_fract_y
_atom_site_fract_z
H1    H     0.03134768970184 0.03097043016478 0.00595868058913 
H2    H     0.02178496065355 0.35014089106121 0.80772085019363 
H3    H     0.71905556078239 0.52405645105161 0.67573823032761 
H4    H     0.41873599059006 0.32732640013216 0.73049147037242 
H5    H     0.24759106983318 0.01089879977191 0.85412129993317 
H6    H     0.10664151023779 0.16562899959419 0.22143068990319 
H7    H     0.24554436039022 0.66403652075414 0.04456047024531 
H8    H     0.40303816952964 0.40045173892961 0.23555308979546 
H9    H     0.69912862914108 0.28006710941259 0.41653300947034 
H10   H     0.38851041042112 0.08249444906722 0.42499424010512 
H11   H     0.03970008957060 0.39456410025818 0.54540109983987 
H12   H     0.36168209967919 0.69309119903566 0.58777049007863 
C1    C     0.89904268005638 0.10789264907607 0.95436205025795 
C2    C     0.73563437025976 0.01605385072751 0.00073003976422 
C3    C     0.73619190060475 0.84598249943577 0.12714337020668 
C4    C     0.89263534051141 0.28376111923049 0.83907294027003 
C5    C     0.55753743958936 0.08563269066593 0.90851249019408 
C6    C     0.90770668991141 0.80928209049821 0.24954307032880 
C7    C     0.55544952054886 0.70956868110228 0.13351922048781 
C8    C     0.72126156045592 0.37649411023968 0.76172233979383 
C9    C     0.55569907022802 0.27129474018933 0.79395647947084 
C10   C     0.89138452957822 0.60059718962503 0.35286557043580 
C11   C     0.38126834977035 0.95995022084639 0.92835368949967 
C12   C     0.09154540046270 0.98347885067021 0.28337074041145 
C13   C     0.38027250066821 0.76946531034358 0.03284631001859 
C14   C     0.54489592978410 0.50755864970444 0.23979583058282 
C15   C     0.70718308988467 0.44413742918998 0.34067893033511 
C16   C     0.25079696989385 0.94131069935107 0.40159664980044 
C17   C     0.05694068962314 0.55953445978830 0.47182588011893 
C18   C     0.23527622049324 0.72392522067371 0.49516143045268 
