data_stdin
_audit_creation_method 'critic2'
_audit_creation_date 2023-8-11
_chemical_formula_sum 'C18 H12'
_cell_formula_units_Z 4
_cell_length_a        15.5369672834
_cell_length_b         4.9825397020
_cell_length_c        15.5526498078
_cell_angle_alpha        90.0010
_cell_angle_beta        81.5610
_cell_angle_gamma        90.0012
_cell_volume          1190.949927
_space_group_crystal_system monoclinic
_space_group_IT_number 5
_space_group_name_H-M_alt 'C2'
_space_group_name_Hall 'C 2y'
loop_
_symmetry_equiv_pos_site_id
_symmetry_equiv_pos_as_xyz
 1 'x,y,z'
 2 '-1/2-x,-1/2+y,-1/2-z'
 3 '-1/2+x,-1/2+y,-1/2+z'
 4 '-x,y,-z'
loop_
_atom_site_label
_atom_site_type_symbol
_atom_site_fract_x
_atom_site_fract_y
_atom_site_fract_z
H1    H     0.91882821972239 0.97599213011154 0.52891959030173 
H2    H     0.96070256972262 0.62533566078919 0.62535726002559 
H3    H     0.84805241977400 0.32524005910762 0.70620580993409 
H4    H     0.69289950006562 0.40090680028983 0.69585429008725 
H5    H     0.57905950026164 0.66570153048756 0.64453074021953 
H6    H     0.91636655034231 0.88662997907410 0.40744089978463 
H7    H     0.53452429025585 0.04831230911143 0.55993176968658 
H8    H     0.56831838007204 0.40594815023863 0.45634327012766 
H9    H     0.67180102976408 0.64996632055314 0.34807800995514 
H10   H     0.01084385983237 0.09435288060457 0.28745323996276 
H11   H     0.81331411010791 0.68142886081110 0.26072151991400 
H12   H     0.96232508015320 0.50729384097088 0.21480443974053 
C1    C     0.86934997996007 0.84020985930883 0.56036335017099 
C2    C     0.78172713997221 0.87352043058124 0.54657794997247 
C3    C     0.75425293994557 0.06083504911178 0.48460703973350 
C4    C     0.89277947031737 0.64763356923321 0.61671383975484 
C5    C     0.71712699995972 0.72188073926264 0.60149741997973 
C6    C     0.81183497986553 0.17616114055568 0.41218063005001 
C7    C     0.66490001974023 0.13339600969211 0.49466467995366 
C8    C     0.82942901994896 0.48057523071012 0.66346055026248 
C9    C     0.74276659993915 0.52165552931495 0.65707751987229 
C10   C     0.78145961002461 0.39478772021905 0.36459161011564 
C11   C     0.62741950988207 0.78339354099047 0.60273070005216 
C12   C     0.89506517995463 0.07052044914531 0.37991453981266 
C13   C     0.60285229012391 0.99238093998716 0.55494199989586 
C14   C     0.63654701984896 0.34690320055927 0.44434268002437 
C15   C     0.69339275033532 0.48194633010814 0.38427027974909 
C16   C     0.94787381978365 0.18539050900220 0.31024595968962 
C17   C     0.83739906981700 0.51298520015682 0.29482335979913 
C18   C     0.92010107013547 0.41346216914546 0.26854526987048 
