data_stdin
_audit_creation_method 'critic2'
_audit_creation_date 2023-8-11
_chemical_formula_sum 'C18 H12'
_cell_formula_units_Z 8
_cell_length_a        16.9106310467
_cell_length_b         7.6387543922
_cell_length_c        19.0472421372
_cell_angle_alpha        90.0007
_cell_angle_beta        74.8469
_cell_angle_gamma        89.9989
_cell_volume          2374.901367
_space_group_crystal_system monoclinic
_space_group_IT_number 15
_space_group_name_H-M_alt 'C2/c'
_space_group_name_Hall '-C 2yc'
loop_
_symmetry_equiv_pos_site_id
_symmetry_equiv_pos_as_xyz
 1 'x,y,z'
 2 '-x,-y,-z'
 3 '-x,y,-1/2-z'
 4 'x,-y,-1/2+z'
 5 '-1/2+x,-1/2+y,z'
 6 '-1/2-x,-1/2-y,-z'
 7 '-1/2-x,-1/2+y,-1/2-z'
 8 '-1/2+x,-1/2-y,-1/2+z'
loop_
_atom_site_label
_atom_site_type_symbol
_atom_site_fract_x
_atom_site_fract_y
_atom_site_fract_z
H1    H     0.34711808022945 0.95065986980167 0.47660828007786 
H2    H     0.31256052006622 0.08933824963677 0.37332796984260 
H3    H     0.16855307025939 0.16532966009115 0.37812269977866 
H4    H     0.05795178021577 0.09156189027530 0.48921045982617 
H5    H     0.01254771965301 0.95025981988624 0.60575888024196 
H6    H     0.38189022980435 0.07254536046058 0.54913425013816 
H7    H     0.04390430998087 0.77398227947663 0.70414836980388 
H8    H     0.13686785005821 0.64756715027248 0.76350505984208 
H9    H     0.27738445026665 0.59827128996626 0.77515715997710 
H10   H     0.51521843993568 0.04923544055462 0.57367826988965 
H11   H     0.42101534984895 0.66246539948232 0.73884663998001 
H12   H     0.53908620022371 0.83530178048672 0.66567428990654 
C1    C     0.28440757992288 0.99164321008916 0.48241274023281 
C2    C     0.22411997019699 0.95562486042790 0.54802584004494 
C3    C     0.24177398984691 0.87908694059900 0.61209753992707 
C4    C     0.26474833007817 0.06666947051676 0.42315746977058 
C5    C     0.14040685972302 0.98639406948338 0.54776459017654 
C6    C     0.32254416979852 0.87150340002283 0.62533555009434 
C7    C     0.17524831006800 0.80631017964286 0.66592963011374 
C8    C     0.18308839994525 0.10741708001495 0.42542503978955 
C9    C     0.12201430988631 0.06617325996589 0.48686617982972 
C10   C     0.33470379021766 0.76413914062650 0.68353365016343 
C11   C     0.07571819986987 0.92551343935119 0.60669727974397 
C12   C     0.39013727993601 0.97514664003446 0.58794068981227 
C13   C     0.09302435985269 0.83121705951625 0.66170115986095 
C14   C     0.18930641969058 0.70631052040141 0.72479401011231 
C15   C     0.26672453971850 0.67939293949656 0.73157422010957 
C16   C     0.46593106993942 0.96372897058192 0.60262423003093 
C17   C     0.41356992967253 0.74985286034337 0.69572192018959 
C18   C     0.47889334977896 0.84633140011374 0.65546451024396 
