data_stdin
_audit_creation_method 'critic2'
_audit_creation_date 2023-8-11
_chemical_formula_sum 'C18 H12'
_cell_formula_units_Z 4
_cell_length_a         8.1079752828
_cell_length_b        16.8073116600
_cell_length_c         9.1777310187
_cell_angle_alpha        89.9989
_cell_angle_beta        74.3086
_cell_angle_gamma        90.0008
_cell_volume          1204.069420
_space_group_crystal_system monoclinic
_space_group_IT_number 14
_space_group_name_H-M_alt 'P2_1/c'
_space_group_name_Hall '-P 2ybc'
loop_
_symmetry_equiv_pos_site_id
_symmetry_equiv_pos_as_xyz
 1 'x,y,z'
 2 '-x,-y,-z'
 3 '-x,-1/2+y,-1/2-z'
 4 'x,-1/2-y,-1/2+z'
loop_
_atom_site_label
_atom_site_type_symbol
_atom_site_fract_x
_atom_site_fract_y
_atom_site_fract_z
H1    H     0.59641588036428 0.12603329983775 0.99464763957244 
H2    H     0.60636826041767 0.08534469025858 0.73731945033118 
H3    H     0.87853836980447 0.03849498995283 0.56084555983227 
H4    H     0.14554362985276 0.03774131003565 0.64620541966985 
H5    H     0.29830080986611 0.07428830002510 0.82534205014061 
H6    H     0.54164915935030 0.05817314019485 0.17337423050472 
H7    H     0.30249270039972 0.14015219001684 0.06696498042721 
H8    H     0.16072493982815 0.20065769970622 0.30112630954815 
H9    H     0.89834833974018 0.23318089978365 0.50169813963464 
H10   H     0.29032325966947 0.08347095983240 0.38275700945820 
H11   H     0.59165113028159 0.22636444009930 0.60365691993857 
H12   H     0.30679615045190 0.17373362983680 0.59543900969737 
C1    C     0.71545104074244 0.10253003990890 0.92323460956276 
C2    C     0.86340213945920 0.10072274998133 0.97763223026286 
C3    C     0.86551709967754 0.12570320002396 0.12853019957579 
C4    C     0.72102359039352 0.08056518006803 0.77681270045999 
C5    C     0.02207569031663 0.08035525988610 0.87028643032168 
C6    C     0.71422202047692 0.13438298979634 0.25518756979256 
C7    C     0.02655133981410 0.14544238023304 0.15271416030309 
C8    C     0.87526494025883 0.05475601995632 0.67627235000295 
C9    C     0.02320972998815 0.05496170000081 0.72311615056463 
C10   C     0.72717240018902 0.17708481000682 0.38720242987216 
C11   C     0.17983414014066 0.09127150018348 0.90809159990525 
C12   C     0.55335873981024 0.09886138990083 0.26191969007107 
C13   C     0.18198797076816 0.12665067986591 0.04133058943506 
C14   C     0.03529047005696 0.18427798024011 0.28865274971591 
C15   C     0.89057695036624 0.20213066979379 0.39983414955141 
C16   C     0.41085009932218 0.11208483019404 0.38236911038832 
C17   C     0.57830296963435 0.19176249016355 0.50697049024528 
C18   C     0.42091463040990 0.16158602027967 0.50358373055419 
