data_stdin
_audit_creation_method 'critic2'
_audit_creation_date 2023-8-11
_chemical_formula_sum 'C18 H12'
_cell_formula_units_Z 8
_cell_length_a        19.7215185201
_cell_length_b        16.9589580404
_cell_length_c         7.1638615420
_cell_angle_alpha        90.0003
_cell_angle_beta        89.9986
_cell_angle_gamma        89.9995
_cell_volume          2395.999377
_space_group_crystal_system orthorhombic
_space_group_IT_number 41
_space_group_name_H-M_alt 'Aea2'
_space_group_name_Hall 'A 2 -2ac'
loop_
_symmetry_equiv_pos_site_id
_symmetry_equiv_pos_as_xyz
 1 'x,y,z'
 2 '-x,-y,z'
 3 '-1/2-x,y,-1/2+z'
 4 '-1/2+x,-y,-1/2+z'
 5 'x,-1/2+y,-1/2+z'
 6 '-x,-1/2-y,-1/2+z'
 7 '-1/2-x,-1/2+y,z'
 8 '-1/2+x,-1/2-y,z'
loop_
_atom_site_label
_atom_site_type_symbol
_atom_site_fract_x
_atom_site_fract_y
_atom_site_fract_z
H1    H     0.51034508994483 0.15274628025638 0.02308624064476 
H2    H     0.62015469991251 0.21717340991744 0.06269658019662 
H3    H     0.62739743001604 0.36046378999248 0.13311607015476 
H4    H     0.52161417001024 0.43975894023096 0.15069130005033 
H5    H     0.39928120021837 0.45169620982654 0.11549613061118 
H6    H     0.45555121983432 0.10394722029474 0.22880382934824 
H7    H     0.29070839986142 0.39274459003970 0.01499665027345 
H8    H     0.22632185008389 0.28257506017926 0.90025480050070 
H9    H     0.21149249023996 0.13925492974107 0.85259064968280 
H10   H     0.43130335013222 0.96202312994552 0.22153252953177 
H11   H     0.25049703007348 0.00580473987719 0.90095373048499 
H12   H     0.33160435987932 0.91064394986326 0.04636248024144 
C1    C     0.51160796017323 0.21467131983225 0.06070703011647 
C2    C     0.44999147016974 0.25724915008136 0.07612444011562 
C3    C     0.38377718023647 0.22194499015811 0.05004221032419 
C4    C     0.57384683978082 0.25134145023268 0.07896447005380 
C5    C     0.45493685980906 0.34102317025263 0.10118366038028 
C6    C     0.37041301019082 0.13795106982699 0.05560081940401 
C7    C     0.32853370019491 0.27281648980994 0.00945327000401 
C8    C     0.57812149003604 0.33258542974256 0.11601792953384 
C9    C     0.51926935995682 0.37640216010669 0.12644405960532 
C10   C     0.30854461997115 0.10858582991273 0.97613766066458 
C11   C     0.39541968991821 0.38853505978162 0.08974024995958 
C12   C     0.41290389014497 0.08268291976100 0.14733024974490 
C13   C     0.33519655982053 0.35584617991570 0.03626015978427 
C14   C     0.26638519009364 0.24154614022993 0.93944256934339 
C15   C     0.25790568015212 0.16242249027178 0.91370766997630 
C16   C     0.39871544016283 0.00274723994945 0.14572759051498 
C17   C     0.29666595987658 0.02630793983867 0.96923231959000 
C18   C     0.34139744986597 0.97380590993589 0.05040777021312 
