data_stdin
_audit_creation_method 'critic2'
_audit_creation_date 2023-8-11
_chemical_formula_sum 'C18 H12'
_cell_formula_units_Z 4
_cell_length_a        15.9478900301
_cell_length_b         7.2791437900
_cell_length_c        10.4065687619
_cell_angle_alpha        90.0000
_cell_angle_beta        90.0013
_cell_angle_gamma        90.0000
_cell_volume          1208.067188
_space_group_crystal_system orthorhombic
_space_group_IT_number 18
_space_group_name_H-M_alt 'P2_12_12'
_space_group_name_Hall 'P 2 2ab'
loop_
_symmetry_equiv_pos_site_id
_symmetry_equiv_pos_as_xyz
 1 'x,y,z'
 2 '-x,-y,z'
 3 '-1/2-x,-1/2+y,-z'
 4 '-1/2+x,-1/2-y,-z'
loop_
_atom_site_label
_atom_site_type_symbol
_atom_site_fract_x
_atom_site_fract_y
_atom_site_fract_z
H1    H     0.65675205011592 0.87204859041986 0.84468398958254 
H2    H     0.52610024987843 0.84089055060389 0.72313802957937 
H3    H     0.52231160012222 0.66196169007414 0.51858743986625 
H4    H     0.65603412979382 0.54855962051348 0.42422059975464 
H5    H     0.80787435978378 0.53047682940038 0.42800020956564 
H6    H     0.68892175006661 0.66916159990789 0.96908751982995 
H7    H     0.94253915020311 0.59640840973314 0.53519745014685 
H8    H     0.02239344980095 0.70502921947652 0.71617923991177 
H9    H     0.03073352983459 0.80792058063722 0.94259210011014 
H10   H     0.70314876005248 0.72545181955871 0.19998049982501 
H11   H     0.96389211004796 0.85631045967493 0.14869383957300 
H12   H     0.83996647996363 0.82995965000236 0.29164691954887 
C1    C     0.65663490021602 0.79158536014516 0.75677025959012 
C2    C     0.73265823026372 0.71331897937555 0.71160729008962 
C3    C     0.81073609005629 0.71796478007888 0.78270417015474 
C4    C     0.58296760030612 0.77602534040444 0.68724367975162 
C5    C     0.73210424008415 0.63664027979385 0.58455168023542 
C6    C     0.81643054022931 0.74545061018178 0.92027882026059 
C7    C     0.88643972982079 0.68971353053989 0.71338963011248 
C8    C     0.58120598970755 0.67959185989910 0.56986818954498 
C9    C     0.65524730970939 0.61498694031471 0.51811637021319 
C10   C     0.89672399007987 0.78486401937535 0.97593310012068 
C11   C     0.80918459992342 0.58905956038190 0.52415760958006 
C12   C     0.74816662999821 0.72023235947847 0.00600333970630 
C13   C     0.88356997010508 0.62399971944800 0.58424560990947 
C14   C     0.96562295989475 0.72328237042044 0.77304577969352 
C15   C     0.97037811998187 0.77769712053814 0.89834922017890 
C16   C     0.75663206999679 0.74828111029095 0.13685271038590 
C17   C     0.90283884994471 0.82007061059937 0.10936990031980 
C18   C     0.83402563980144 0.80398643972037 0.18909496952067 
