data_stdin
_audit_creation_method 'critic2'
_audit_creation_date 2023-8-11
_chemical_formula_sum 'C18 H12'
_cell_formula_units_Z 4
_cell_length_a        10.0537566055
_cell_length_b        23.4584593984
_cell_length_c         4.9697174015
_cell_angle_alpha        90.0039
_cell_angle_beta        90.0018
_cell_angle_gamma        90.0003
_cell_volume          1172.086183
_space_group_crystal_system orthorhombic
_space_group_IT_number 33
_space_group_name_H-M_alt 'Pna2_1'
_space_group_name_Hall 'P 2c -2n'
loop_
_symmetry_equiv_pos_site_id
_symmetry_equiv_pos_as_xyz
 1 'x,y,z'
 2 '-x,-y,-1/2+z'
 3 '-1/2-x,-1/2+y,-1/2+z'
 4 '-1/2+x,-1/2-y,z'
loop_
_atom_site_label
_atom_site_type_symbol
_atom_site_fract_x
_atom_site_fract_y
_atom_site_fract_z
H1    H     0.37727616014450 0.27776203983825 0.06529771014821 
H2    H     0.27420234000925 0.21925969990614 0.71902775050640 
H3    H     0.06118464997982 0.24801861010746 0.50444206991270 
H4    H     0.94592048017986 0.33536102020737 0.66868755091426 
H5    H     0.92665243958265 0.41353769997229 0.97693128919494 
H6    H     0.50696064026862 0.33325016006350 0.98935480942774 
H7    H     0.01727603996691 0.47039527001034 0.35700314091841 
H8    H     0.18625799047627 0.49194442006038 0.67072268081479 
H9    H     0.41591580993338 0.48238393011242 0.83956377083332 
H10   H     0.73815353997503 0.33799517982000 0.12183907948017 
H11   H     0.63821241982499 0.45021419018109 0.77633444047245 
H12   H     0.80922147954865 0.39680585014725 0.51586878080383 
C1    C     0.28660528955575 0.29304742987231 0.97151740986024 
C2    C     0.22915277978819 0.34537429008729 0.05564043946198 
C3    C     0.29010456987019 0.38461836021007 0.24526451048650 
C4    C     0.22700280979631 0.25902308989105 0.77847870940854 
C5    C     0.09920694034217 0.35812115008824 0.95162880008836 
C6    C     0.43023168032752 0.38489254002551 0.31844290995736 
C7    C     0.20745187957697 0.42717956989317 0.36200680943705 
C8    C     0.10543350032312 0.27466941008434 0.65983847955110 
C9    C     0.04215881013179 0.32314545984507 0.75060753063448 
C10   C     0.47347982013017 0.42033933019223 0.53745544011451 
C11   C     0.02555890019525 0.40492812986847 0.05734415949973 
C12   C     0.53140781974494 0.35624031003347 0.17185332911199 
C13   C     0.07575643041288 0.43648212985676 0.26452960997916 
C14   C     0.25459184966455 0.46176553004131 0.57785610031702 
C15   C     0.38148029033075 0.45673145994738 0.67124078082801 
C16   C     0.66423485981487 0.36005940997798 0.24328288909375 
C17   C     0.60961419983365 0.42277800011299 0.60925194055582 
C18   C     0.70422124021382 0.39306110000128 0.46517831962760 
