data_stdin
_audit_creation_method 'critic2'
_audit_creation_date 2023-8-11
_chemical_formula_sum 'C18 H12'
_cell_formula_units_Z 8
_cell_length_a        38.1263513075
_cell_length_b         3.8308357202
_cell_length_c        15.8559736940
_cell_angle_alpha        89.9665
_cell_angle_beta        87.3621
_cell_angle_gamma        89.9856
_cell_volume          2313.402329
_space_group_crystal_system triclinic
_space_group_IT_number 2
_space_group_name_H-M_alt 'P-1'
_space_group_name_Hall '-P 1'
loop_
_symmetry_equiv_pos_site_id
_symmetry_equiv_pos_as_xyz
 1 'x,y,z'
 2 '-x,-y,-z'
 3 '-1/2+x,-1/2+y,z'
 4 '-1/2-x,-1/2-y,-z'
loop_
_atom_site_label
_atom_site_type_symbol
_atom_site_fract_x
_atom_site_fract_y
_atom_site_fract_z
H1    H     0.10100128003275 0.27667400008894 0.20087666020150 
H2    H     0.89898228006783 0.27705018938466 0.29905908002061 
H3    H     0.04453668007525 0.07690787013515 0.26128200016224 
H4    H     0.95544113011116 0.07704327109978 0.23866358021976 
H5    H     0.00226236989654 0.76106516881719 0.17202597004592 
H6    H     0.99773217010635 0.76101770888158 0.32797788996125 
H7    H     0.01536802989282 0.71993516104492 0.01758896973690 
H8    H     0.98465164011872 0.72005494055343 0.48244345029458 
H9    H     0.05117863999991 0.86489699067753 0.89420660009551 
H10   H     0.94886676993549 0.86538467023180 0.60581036980036 
H11   H     0.14164659001106 0.95704626904938 0.19646134997072 
H12   H     0.85835342001191 0.95727073091457 0.30360826993469 
H13   H     0.10409934991203 0.15399895994948 0.82843413020659 
H14   H     0.89594939998324 0.15470929884633 0.67152976023476 
H15   H     0.16003892000846 0.42606019961344 0.83884310031373 
H16   H     0.83998610998959 0.42662373917483 0.66108059012671 
H17   H     0.21174458005802 0.57660832074311 0.92025849994560 
H18   H     0.78825294987925 0.57693462931410 0.57966566012645 
H19   H     0.19551388994969 0.04743023885673 0.27001467990003 
H20   H     0.80446296987197 0.04741047906477 0.23007405990830 
H21   H     0.24317530990752 0.53395188120125 0.04878871971093 
H22   H     0.75680027011207 0.53403401943330 0.45117083006289 
H23   H     0.24689114989178 0.34935632045555 0.19808561993312 
H24   H     0.75307460003561 0.34926118918001 0.30194302012876 
C1    C     0.08360902996987 0.13351003918228 0.16105886989595 
C2    C     0.91638406995926 0.13383422064219 0.33890381002364 
C3    C     0.09328735997188 0.08400788956152 0.07448848979976 
C4    C     0.90671895010767 0.08437184007354 0.42549567995473 
C5    C     0.12707144012204 0.18145916925505 0.03580184982906 
C6    C     0.87293614988712 0.18186467968586 0.46417742007930 
C7    C     0.05134351991208 0.02561324038853 0.19505807027313 
C8    C     0.94864584991288 0.02580257931815 0.30490874970348 
C9    C     0.06667966003815 0.95246057958944 0.02199044000321 
C10   C     0.93333758991462 0.95277978041816 0.47801241981614 
C11   C     0.15878124994546 0.22687845023836 0.08158238012817 
C12   C     0.84121503005165 0.22716778999064 0.41840998989304 
C13   C     0.12931983013374 0.22755743967454 0.94687369980640 
C14   C     0.87070005989270 0.22805861905739 0.55309143976849 
C15   C     0.02705940991242 0.85835733984245 0.14451778995156 
C16   C     0.97293898992153 0.85844123037477 0.35547853014427 
C17   C     0.03455290001983 0.82946149100209 0.05888309987688 
C18   C     0.96545952990743 0.82962328979904 0.44112818972451 
C19   C     0.18929811991165 0.37444820885941 0.03881917981880 
C20   C     0.81069362996470 0.37469391055391 0.46115051978856 
C21   C     0.07185231992336 0.96623775029771 0.93252263026410 
C22   C     0.92818117002323 0.96669063929796 0.56747905030817 
C23   C     0.16268759012328 0.10563607054428 0.16521425992546 
C24   C     0.83730480999018 0.10582577087983 0.33482232971618 
C25   C     0.10116216994270 0.12016795890738 0.89663528984673 
C26   C     0.89887338990666 0.12073756924376 0.60334033012821 
C27   C     0.16003800012348 0.37572311982329 0.90652054981735 
C28   C     0.83997814001915 0.37621401071387 0.59342195026020 
C29   C     0.18861014997292 0.45806117056281 0.95129178016977 
C30   C     0.81139101002431 0.45841927082637 0.54864824984149 
C31   C     0.19357850994007 0.15009603055107 0.20631317028641 
C32   C     0.80640303995730 0.15015717893320 0.29373619004096 
C33   C     0.22045515987396 0.42036651925283 0.08264261020361 
C34   C     0.77952453009260 0.42048009962627 0.41733764000100 
C35   C     0.22261627995664 0.31530200989040 0.16547289018118 
C36   C     0.77735801010077 0.31531047126210 0.33454727015827 
