data_stdin
_audit_creation_method 'critic2'
_audit_creation_date 2023-8-11
_chemical_formula_sum 'C18 H12'
_cell_formula_units_Z 8
_cell_length_a        16.9955393072
_cell_length_b         7.6141773133
_cell_length_c        19.0508702009
_cell_angle_alpha        89.9935
_cell_angle_beta        74.5563
_cell_angle_gamma        89.9935
_cell_volume          2376.300729
_space_group_crystal_system monoclinic
_space_group_IT_number 15
_space_group_name_H-M_alt 'C2/c'
_space_group_name_Hall '-C 2yc'
loop_
_symmetry_equiv_pos_site_id
_symmetry_equiv_pos_as_xyz
 1 'x,y,z'
 2 '-x,-y,-z'
 3 '-x,y,-1/2-z'
 4 'x,-y,-1/2+z'
 5 '-1/2+x,-1/2+y,z'
 6 '-1/2-x,-1/2-y,-z'
 7 '-1/2-x,-1/2+y,-1/2-z'
 8 '-1/2+x,-1/2-y,-1/2+z'
loop_
_atom_site_label
_atom_site_type_symbol
_atom_site_fract_x
_atom_site_fract_y
_atom_site_fract_z
H1    H     0.34844132030571 0.45408777045316 0.47668871989249 
H2    H     0.31417512999476 0.59071559040650 0.37306350019110 
H3    H     0.17053741020401 0.66244772046068 0.37737925991955 
H4    H     0.06000166005614 0.58709300993688 0.48861881990040 
H5    H     0.01462513036466 0.44816043001372 0.60560937975767 
H6    H     0.38250402977334 0.57516934010183 0.54932596025879 
H7    H     0.04563891996723 0.27371350947293 0.70474849983431 
H8    H     0.13783252025261 0.14822096970225 0.76400164012232 
H9    H     0.27773930021172 0.09894991031333 0.77549245000606 
H10   H     0.51498767014185 0.55223349011410 0.57394572985426 
H11   H     0.42067631000031 0.16317466000061 0.73895965975083 
H12   H     0.53844022988875 0.33731121005248 0.66584267985347 
C1    C     0.28578244020678 0.49318661010071 0.48234987023223 
C2    C     0.22547993018582 0.45608989999351 0.54797758987581 
C3    C     0.24284169985071 0.38001816989226 0.61218420972528 
C4    C     0.26632544007630 0.56710429963246 0.42287815999611 
C5    C     0.14208586018318 0.48516148060001 0.54756747015620 
C6    C     0.32316536000029 0.37292429038974 0.62544162993580 
C7    C     0.17645073980784 0.30683269970492 0.66616405985290 
C8    C     0.18489417984903 0.60557803993183 0.42488622010222 
C9    C     0.12388870985576 0.56353982032115 0.48638165980260 
C10   C     0.33504529029141 0.26520707060560 0.68366280995833 
C11   C     0.07750000997041 0.42423574024424 0.60669545024599 
C12   C     0.39054023020614 0.47730604059187 0.58810638002494 
C13   C     0.09457955010837 0.33097713001806 0.66201780978694 
C14   C     0.19021183998078 0.20691172945997 0.72515850989533 
C15   C     0.26723597971935 0.18008361053129 0.73184710009696 
C16   C     0.46586441988153 0.46612837968263 0.60282991015596 
C17   C     0.41345900989960 0.25095981986725 0.69583816024473 
C18   C     0.47860160975022 0.34815591041666 0.65561204999676 
