data_stdin
_audit_creation_method 'critic2'
_audit_creation_date 2023-8-11
_chemical_formula_sum 'C18 H12'
_cell_formula_units_Z 8
_cell_length_a        15.1619248687
_cell_length_b         8.4564306946
_cell_length_c        19.3357329046
_cell_angle_alpha        90.0055
_cell_angle_beta       107.2609
_cell_angle_gamma        89.9934
_cell_volume          2367.494231
_space_group_crystal_system monoclinic
_space_group_IT_number 15
_space_group_name_H-M_alt 'C2/c'
_space_group_name_Hall '-C 2yc'
loop_
_symmetry_equiv_pos_site_id
_symmetry_equiv_pos_as_xyz
 1 'x,y,z'
 2 '-x,-y,-z'
 3 '-1/2-x,-1/2+y,-1/2-z'
 4 '-1/2+x,-1/2-y,-1/2+z'
 5 '-1/2+x,-1/2+y,z'
 6 '-1/2-x,-1/2-y,-z'
 7 '-x,y,-1/2-z'
 8 'x,-y,-1/2+z'
loop_
_atom_site_label
_atom_site_type_symbol
_atom_site_fract_x
_atom_site_fract_y
_atom_site_fract_z
H1    H     0.19859653544946 0.16925631142581 0.51363953844088 
H2    H     0.13024302598794 0.35429522175569 0.41589974886807 
H3    H     0.99545386188027 0.27510343017739 0.31203348288464 
H4    H     0.93660664124043 0.00021038034656 0.30555425632517 
H5    H     0.94585755188648 0.73435165744190 0.35273545585673 
H6    H     0.17296245745948 0.14484069190134 0.60388647489471 
H7    H     0.02645352130807 0.53304076814390 0.44175016396464 
H8    H     0.14835277775690 0.45592806711606 0.54493371889499 
H9    H     0.28327744708966 0.51899223503785 0.65049656953765 
H10   H     0.29072266138839 0.19893540210296 0.71839673970576 
H11   H     0.37608191479809 0.71165923639045 0.73222587326224 
H12   H     0.39929447411631 0.98626377163867 0.78164337430274 
C1    C     0.13811459540731 0.13249232583923 0.47073562245617 
C2    C     0.10380963866961 0.97653227258198 0.47104094286730 
C3    C     0.14351103755680 0.86142581173248 0.52728010661114 
C4    C     0.10024129104688 0.23721109438829 0.41494729018623 
C5    C     0.03145742817503 0.92864175035633 0.40801391372785 
C6    C     0.20907225936909 0.89848601923964 0.59693738057522 
C7    C     0.11899174999284 0.70008562983794 0.51247546584677 
C8    C     0.02543060822852 0.19174639859619 0.35556394714695 
C9    C     0.99268279021430 0.03889340664701 0.35212343980744 
C10   C     0.26295451425373 0.77308195265089 0.63894571864205 
C11   C     0.00189302725028 0.76806616124826 0.40026147362594 
C12   C     0.21999219219657 0.05070670051933 0.62935508400412 
C13   C     0.04606803418423 0.65713053157618 0.44960134601151 
C14   C     0.16843692555893 0.57815336820958 0.55913742270988 
C15   C     0.24185796924176 0.61275486105399 0.61780303943027 
C16   C     0.28590046743091 0.08115913573463 0.69480912947515 
C17   C     0.33332876534058 0.80874457188899 0.70368124101787 
C18   C     0.34591280281295 0.96056224309392 0.73116623966504 
