data_stdin
_audit_creation_method 'critic2'
_audit_creation_date 2023-8-11
_chemical_formula_sum 'C18 H12'
_cell_formula_units_Z 18
_cell_length_a        40.1366398741
_cell_length_b        40.1232500376
_cell_length_c         3.8400696563
_cell_angle_alpha        90.0105
_cell_angle_beta        89.9842
_cell_angle_gamma       120.0745
_cell_volume          5351.556635
_space_group_crystal_system triclinic
_space_group_IT_number 2
_space_group_name_H-M_alt 'P-1'
_space_group_name_Hall '-P 1'
loop_
_symmetry_equiv_pos_site_id
_symmetry_equiv_pos_as_xyz
 1 'x,y,z'
 2 '-x,-y,-z'
 3 '-2/3+x,-1/3+y,-1/3+z'
 4 '-2/3-x,-1/3-y,-1/3-z'
 5 '-1/3+x,-2/3+y,-2/3+z'
 6 '-1/3-x,-2/3-y,-2/3-z'
loop_
_atom_site_label
_atom_site_type_symbol
_atom_site_fract_x
_atom_site_fract_y
_atom_site_fract_z
H1    H     0.84382436100729 0.00719155144722 0.46262411947976 
H2    H     0.99289779048416 0.83678394180200 0.46358328886704 
H3    H     0.16323159233673 0.15603545815499 0.46307837337116 
H4    H     0.89871041571548 0.00006173958068 0.61470452593151 
H5    H     0.00007716612760 0.89885421696496 0.61585496619155 
H6    H     0.10114957475047 0.10106575512443 0.61563391395372 
H7    H     0.95711456558274 0.05449144997545 0.89721337978204 
H8    H     0.94565528870735 0.90279136367834 0.89754115706699 
H9    H     0.09714906105519 0.04268348586959 0.89779165376698 
H10   H     0.96079268342121 0.11764887346362 0.96598274155808 
H11   H     0.88246537164365 0.84321112964353 0.96543247617217 
H12   H     0.15666487860534 0.03912468653480 0.96597841852585 
H13   H     0.93521044164398 0.15990824783597 0.85301603674409 
H14   H     0.84017242539904 0.77527742346665 0.85188401065417 
H15   H     0.22458281008872 0.06484622442267 0.85294762101475 
H16   H     0.80236133379408 0.99569863012786 0.80181453186672 
H17   H     0.00426528931316 0.80673963945878 0.80284096761438 
H18   H     0.19326936106036 0.19753474655831 0.80212984416292 
H19   H     0.88372696170715 0.17015423543672 0.61417292943742 
H20   H     0.82989793914228 0.71349934172320 0.61258812460444 
H21   H     0.28637447032127 0.11642431065213 0.61365180571480 
H22   H     0.82125319929843 0.14631808976194 0.37080631040573 
H23   H     0.85369391374552 0.67484929126186 0.36955842475118 
H24   H     0.32505352353514 0.17891716330507 0.36978154420531 
H25   H     0.75676974267072 0.09267016666664 0.20950549251107 
H26   H     0.90729146201509 0.66404596128302 0.20860288360998 
H27   H     0.33591612475616 0.24336970944485 0.20846824482683 
H28   H     0.73599832651795 0.94464065348431 0.71866862406902 
H29   H     0.05524525139217 0.79141999090567 0.72048585588046 
H30   H     0.20863204268045 0.26388810551107 0.71919304028260 
H31   H     0.70909731948811 0.02468281423945 0.22872717068430 
H32   H     0.97522452261512 0.68441025219061 0.22852461987761 
H33   H     0.31562629719130 0.29096883528115 0.22808157895522 
H34   H     0.68875120590668 0.95791433331248 0.41164736202310 
H35   H     0.04195168241871 0.73086207024016 0.41287379117410 
H36   H     0.26921159653888 0.31122612136371 0.41173129739627 
C1    C     0.86822686450745 0.03096665881933 0.59149944354320 
C2    C     0.96911903891225 0.83738735605661 0.59209136435732 
C3    C     0.16259833307706 0.13164885995029 0.59186481531278 
C4    C     0.86812675178651 0.06578224019957 0.65174266514379 
C5    C     0.93427738608592 0.80241432195276 0.65175940458742 
C6    C     0.19753754219697 0.13181490651781 0.65174629644187 
C7    C     0.83574031921618 0.07113333586988 0.57545625243404 
C8    C     0.92889278289352 0.76464173855170 0.57525555914096 
C9    C     0.23531656084678 0.16425570450838 0.57519800471631 
C10   C     0.89968969442123 0.02710268041843 0.67308155200256 
C11   C     0.97301434468751 0.87274814683648 0.67378177511036 
C12   C     0.12723033227911 0.10013683760058 0.67368872923864 
C13   C     0.90352533742760 0.09809900818535 0.76923655619576 
C14   C     0.90197718781778 0.80547582032727 0.76885883898725 
C15   C     0.19444043870648 0.09643554917100 0.76917609952705 
C16   C     0.79634327702041 0.04006508199202 0.53665064099000 
C17   C     0.95992047341104 0.75631736847139 0.53680351726651 
C18   C     0.24367216903125 0.20364180705683 0.53642797902274 
C19   C     0.84308737375193 0.10943513860682 0.53980473306212 
C20   C     0.89059341521750 0.73364046281459 0.53902238141742 
C21   C     0.26628688070126 0.15697647563227 0.53930090470179 
C22   C     0.93277240887566 0.05790497203312 0.82363302122134 
C23   C     0.94221809433856 0.87500785991503 0.82389750483251 
C24   C     0.12493651813676 0.06706784187598 0.82407305783577 
C25   C     0.93470973949757 0.09300579963641 0.86491468591716 
C26   C     0.90709973722630 0.84178891665114 0.86467099061635 
C27   C     0.15812080526152 0.06519661493405 0.86502802816346 
C28   C     0.76808822451693 0.04819287053418 0.39482026119459 
C29   C     0.95177155417274 0.71990565338754 0.39463875199937 
C30   C     0.28008940391285 0.23194927799183 0.39429988022092 
C31   C     0.90795078955441 0.13561444097217 0.76771224051245 
C32   C     0.86445441898265 0.77233303882081 0.76679504329205 
C33   C     0.22755191306373 0.09208332274498 0.76748836854883 
C34   C     0.78295126180893 0.00204789958391 0.65780501416723 
C35   C     0.99790709077068 0.78096113088255 0.65862249487665 
C36   C     0.21905133346552 0.21698129929013 0.65791019301714 
C37   C     0.87948471240861 0.14120845480145 0.63793057686285 
C38   C     0.85884125647068 0.73824475356099 0.63678892336409 
C39   C     0.26164927549693 0.12060171959201 0.63749846379411 
C40   C     0.81404661258215 0.11652313922645 0.40678604969913 
C41   C     0.88348230521986 0.69747864357037 0.40581652372405 
C42   C     0.30245163154549 0.18606874621276 0.40598240232707 
C43   C     0.77837186444611 0.08700206232510 0.32117732944905 
C44   C     0.91297718476788 0.69134066723764 0.32043224789626 
C45   C     0.30862175365215 0.22172774893210 0.32034189861249 
C46   C     0.74507860805468 0.97325139621584 0.61650121447889 
C47   C     0.02666026311541 0.77187883021463 0.61776572818644 
C48   C     0.22815951444218 0.25484965073661 0.61673936399860 
C49   C     0.72974081960940 0.01796832710693 0.34655730497086 
C50   C     0.98195659195186 0.71178532508474 0.34670798474037 
C51   C     0.28824214295740 0.27028901842256 0.34613884850631 
C52   C     0.71834983689622 0.98084873177951 0.45054937900223 
C53   C     0.01904973190485 0.73753024347043 0.45145969831781 
C54   C     0.26251855355958 0.28162979664018 0.45051817902834 
