data_stdin
_audit_creation_method 'critic2'
_audit_creation_date 2023-8-11
_chemical_formula_sum 'C18 H12'
_cell_formula_units_Z 4
_cell_length_a         3.9056910056
_cell_length_b        15.1717329277
_cell_length_c        20.5511559796
_cell_angle_alpha        90.0243
_cell_angle_beta        76.2449
_cell_angle_gamma        90.0568
_cell_volume          1182.856028
_space_group_crystal_system triclinic
_space_group_IT_number 2
_space_group_name_H-M_alt 'P-1'
_space_group_name_Hall '-P 1'
loop_
_symmetry_equiv_pos_site_id
_symmetry_equiv_pos_as_xyz
 1 'x,y,z'
 2 '-x,-y,-z'
loop_
_atom_site_label
_atom_site_type_symbol
_atom_site_fract_x
_atom_site_fract_y
_atom_site_fract_z
H1    H     0.32474695960583 0.08178178973839 0.89378443975916 
H2    H     0.67563218054754 0.58188436967577 0.60616223987193 
H3    H     0.62604633981967 0.00490612010281 0.79247264976457 
H4    H     0.37471287987694 0.50497041001286 0.70749508003846 
H5    H     0.07600147100069 0.08270289975617 0.70389906975790 
H6    H     0.92483996969951 0.58261496012619 0.79609937996492 
H7    H     0.18008031039330 0.24252268971793 0.71719390015997 
H8    H     0.82030503076209 0.74233346023655 0.78278626991893 
H9    H     0.04941129979381 0.37845915010876 0.77693120988545 
H10   H     0.95031494913796 0.87825491994612 0.72299886000478 
H11   H     0.47646816105780 0.08220255970324 0.97551531999275 
H12   H     0.52405817887128 0.58207270005482 0.52443425009250 
H13   H     0.69656255951564 0.46302363970927 0.87350554996957 
H14   H     0.30278529984583 0.96290522969208 0.62639705010187 
H15   H     0.28047398003014 0.47088567028457 0.97679487997926 
H16   H     0.71898671887050 0.97089253988491 0.52311870999449 
H17   H     0.88856825992776 0.40106950015978 0.07647668015349 
H18   H     0.11118063991547 0.90119216998956 0.42345902980173 
H19   H     0.14530308992805 0.01954729000277 0.08083599998997 
H20   H     0.85562655893372 0.51948182973021 0.41914087981351 
H21   H     0.69417037035585 0.27295772987345 0.14235427994454 
H22   H     0.30606443853194 0.77311877009421 0.35761469021819 
H23   H     0.73382373963582 0.11277429968610 0.16456371984719 
H24   H     0.26702777042875 0.61286149006606 0.33542905016820 
C1    C     0.52881861069855 0.11645643024672 0.85794255010543 
C2    C     0.47154357939629 0.61648081012452 0.64201077025359 
C3    C     0.60116050007023 0.20597790010505 0.86954932012515 
C4    C     0.39899908930937 0.70593641973264 0.63039927982935 
C5    C     0.43879144035703 0.25404076024491 0.93011422012482 
C6    C     0.56120659971007 0.75401369023993 0.56982471984706 
C7    C     0.69432652990278 0.07324470012738 0.79964418003006 
C8    C     0.30625138899114 0.57325035027106 0.70032206017420 
C9    C     0.83040417933139 0.25205404970894 0.81517945993122 
C10   C     0.16973605938739 0.75194377999245 0.68477504018070 
C11   C     0.25569389993826 0.21361945995983 0.99282837017629 
C12   C     0.74447027033352 0.71362075998671 0.50711948996031 
C13   C     0.46017874899118 0.34747019982340 0.92781718024402 
C14   C     0.53956151950125 0.84743157009894 0.57210886977690 
C15   C     0.94145392927125 0.11731861983648 0.74919935023680 
C16   C     0.05917870963989 0.61724386989228 0.75078290013132 
C17   C     0.00271200996655 0.20585477970568 0.75684143006040 
C18   C     0.99769210140204 0.70572516022264 0.74313225974570 
C19   C     0.04677587908200 0.26800222982385 0.04445731977206 
C20   C     0.95331938096561 0.76806597029392 0.45549345986608 
C21   C     0.87105503099121 0.34517789028028 0.81851083016643 
C22   C     0.12877190038977 0.84503018980255 0.68142416016884 
C23   C     0.28869606069277 0.12373284011041 0.00921559987139 
C24   C     0.71175005913279 0.62368451019476 0.49073928998969 
C25   C     0.67980149855211 0.39135499999812 0.87178128026676 
C26   C     0.31981617875482 0.89125339019941 0.62813848022811 
C27   C     0.26217852916558 0.39947795980699 0.98149432993133 
C28   C     0.73745631956454 0.89949078029802 0.51842883018546 
C29   C     0.04975055967938 0.36126145996552 0.03656342000903 
C30   C     0.95006406058312 0.86133532022154 0.46337238985943 
C31   C     0.10618134122259 0.08836485024700 0.06956395975548 
C32   C     0.89450755010201 0.58834709983990 0.43040628985146 
C33   C     0.85454489983905 0.22983342011792 0.10486521986889 
C34   C     0.14578993914998 0.72993644998793 0.39510146996199 
C35   C     0.87914935095671 0.14104321011441 0.11734949983297 
C36   C     0.12149230017993 0.64110699016366 0.38262901985034 
