data_stdin
_audit_creation_method 'critic2'
_audit_creation_date 2023-8-11
_chemical_formula_sum 'C18 H12'
_cell_formula_units_Z 4
_cell_length_a         4.8790632734
_cell_length_b        14.0047667661
_cell_length_c        17.6451308922
_cell_angle_alpha        89.9998
_cell_angle_beta        76.8323
_cell_angle_gamma        89.9986
_cell_volume          1173.993797
_space_group_crystal_system monoclinic
_space_group_IT_number 14
_space_group_name_H-M_alt 'P2_1/c'
_space_group_name_Hall '-P 2ybc'
loop_
_symmetry_equiv_pos_site_id
_symmetry_equiv_pos_as_xyz
 1 'x,y,z'
 2 '-x,-y,-z'
 3 '-x,-1/2+y,-1/2-z'
 4 'x,-1/2-y,-1/2+z'
loop_
_atom_site_label
_atom_site_type_symbol
_atom_site_fract_x
_atom_site_fract_y
_atom_site_fract_z
H1    H     0.12095245037005 0.76219609023146 0.76059361012785 
H2    H     0.37475000915410 0.75579079003980 0.86472696012343 
H3    H     0.59089316013933 0.60330359997766 0.89577148028257 
H4    H     0.50925401911369 0.45451678967957 0.82686315008731 
H5    H     0.29923059996036 0.37085971015785 0.73616216003942 
H6    H     0.29632569064071 0.79416678984260 0.65628342027858 
H7    H     0.99782384929897 0.37140000995742 0.63984266975326 
H8    H     0.71759885016393 0.45140633029650 0.56743380975423 
H9    H     0.57184975078782 0.59878377007861 0.50939134020266 
H10   H     0.20463967938233 0.93218012990166 0.58226283015190 
H11   H     0.64402303094816 0.76503877964532 0.47969903971553 
H12   H     0.87420856980279 0.92076464984695 0.49339645987250 
C1    C     0.21841263984563 0.69548221002978 0.77123198977825 
C2    C     0.18720664035744 0.61370596023659 0.72645320025571 
C3    C     0.05107641889939 0.61440965974832 0.66137647017520 
C4    C     0.35845222934141 0.69161108030294 0.83111127990526 
C5    C     0.28358625055309 0.52470502025613 0.75113358021116 
C6    C     0.00261814933622 0.69905399973416 0.61859226999831 
C7    C     0.96530156919092 0.52521096017461 0.63620336020992 
C8    C     0.47495727029953 0.60529350981047 0.84991312985276 
C9    C     0.43238188079675 0.52303395002432 0.81119366972737 
C10   C     0.82697379896012 0.69187215028614 0.56358473014182 
C11   C     0.22166874046377 0.43751018985620 0.71694439006057 
C12   C     0.13911359939373 0.78790872024029 0.62197450019549 
C13   C     0.05672895879497 0.43791671977918 0.66398252027323 
C14   C     0.78895038934616 0.52118498017506 0.58205720004453 
C15   C     0.71092442045368 0.60204666982124 0.54956259020696 
C16   C     0.09264096901170 0.86579618008323 0.57829409023858 
C17   C     0.78109819930097 0.77286809014970 0.52015968990660 
C18   C     0.90864993101694 0.85920471030345 0.52773895990942 
