data_stdin
_audit_creation_method 'critic2'
_audit_creation_date 2023-8-11
_chemical_formula_sum 'C18 H12'
_cell_formula_units_Z 4
_cell_length_a         7.7040574932
_cell_length_b        11.5610065505
_cell_length_c        15.6292139462
_cell_angle_alpha        89.9993
_cell_angle_beta        59.1287
_cell_angle_gamma        90.0003
_cell_volume          1194.819916
_space_group_crystal_system monoclinic
_space_group_IT_number 14
_space_group_name_H-M_alt 'P2_1/c'
_space_group_name_Hall '-P 2ybc'
loop_
_symmetry_equiv_pos_site_id
_symmetry_equiv_pos_as_xyz
 1 'x,y,z'
 2 '-x,-y,-z'
 3 '-x,-1/2+y,-1/2-z'
 4 'x,-1/2-y,-1/2+z'
loop_
_atom_site_label
_atom_site_type_symbol
_atom_site_fract_x
_atom_site_fract_y
_atom_site_fract_z
H1    H     0.57944164060386 0.13924091003765 0.17290515991850 
H2    H     0.52327785981276 0.02348069981365 0.31500039013874 
H3    H     0.61556607011407 0.81472162015756 0.29499553019679 
H4    H     0.73264693045001 0.71984182984630 0.13070468982150 
H5    H     0.79138189961966 0.72629247024795 0.96405275005821 
H6    H     0.81981585959830 0.22324854967861 0.09180492989633 
H7    H     0.82456391965331 0.83718400040562 0.82071309034074 
H8    H     0.82835390969769 0.01250159967151 0.74288439029252 
H9    H     0.80649229029787 0.22656825027570 0.74068270028473 
H10   H     0.83285921078702 0.43336718012254 0.07843207983885 
H11   H     0.80074462940960 0.41128758964476 0.81245036020706 
H12   H     0.80946284968534 0.53136511002692 0.94162020003060 
C1    C     0.62625580029586 0.04936289960416 0.16053287996012 
C2    C     0.71036530953921 0.00096420035535 0.06371656023812 
C3    C     0.75804372987912 0.06679207025804 0.97520956961581 
C4    C     0.59114143007211 0.98343751996016 0.24171097025524 
C5    C     0.73410901089112 0.87763673979304 0.05664640976341 
C6    C     0.77628960020434 0.19188159039466 0.96746417018029 
C7    C     0.78960992006520 0.00467946030956 0.88995527984405 
C8    C     0.63852327005404 0.86475647962890 0.23098912004675 
C9    C     0.70405764022002 0.81267689008158 0.14003105023157 
C10   C     0.78670754090658 0.24853968981138 0.88324532967319 
C11   C     0.77952473026927 0.82025349030651 0.96688420012635 
C12   C     0.80017726036606 0.26311760034914 0.03459496000712 
C13   C     0.79862630047836 0.88142764031315 0.88784388015229 
C14   C     0.80985217983390 0.06410333028422 0.80526468035500 
C15   C     0.79933546082032 0.18169040032036 0.80366058964759 
C16   C     0.81285223980306 0.38233499983032 0.02555571983312 
C17   C     0.79524216066208 0.37068852005077 0.87664947995528 
C18   C     0.80354786038673 0.43744741967293 0.94774400006054 
