data_stdin
_audit_creation_method 'critic2'
_audit_creation_date 2023-8-11
_chemical_formula_sum 'C18 H12'
_cell_formula_units_Z 4
_cell_length_a        29.6581238838
_cell_length_b         3.9800022176
_cell_length_c         9.8257963836
_cell_angle_alpha        90.0016
_cell_angle_beta        90.0245
_cell_angle_gamma        89.9900
_cell_volume          1159.830974
_space_group_crystal_system monoclinic
_space_group_IT_number 7
_space_group_name_H-M_alt 'Pc'
_space_group_name_Hall 'P -2yc'
loop_
_symmetry_equiv_pos_site_id
_symmetry_equiv_pos_as_xyz
 1 'x,y,z'
 2 '-1/2+x,-y,z'
loop_
_atom_site_label
_atom_site_type_symbol
_atom_site_fract_x
_atom_site_fract_y
_atom_site_fract_z
H1    H     0.83363204014819 0.81716284061613 0.99725076975710 
H2    H     0.16643486008935 0.18250815891200 0.49741682959109 
H3    H     0.85572199999177 0.99793294036952 0.22476311013235 
H4    H     0.14439947004516 0.00188104889809 0.72491097043373 
H5    H     0.92698560014517 0.32030798047449 0.26084420955032 
H6    H     0.07310379009087 0.67994353076018 0.76099829031266 
H7    H     0.97715431007329 0.43156897965064 0.06375309008795 
H8    H     0.02287801016799 0.56885675058457 0.56389002969434 
H9    H     0.99645130007718 0.36212774002708 0.82686671986662 
H10   H     0.00352437997170 0.63847566105676 0.32701377009083 
H11   H     0.79512390000275 0.06494620880864 0.87354809961798 
H12   H     0.20489061987990 0.93470831103759 0.37374435010906 
H13   H     0.98049581016127 0.10623677010270 0.60219528025572 
H14   H     0.01944989007370 0.89410495009009 0.10233926951739 
H15   H     0.93356297999247 0.79965500068364 0.45166858965726 
H16   H     0.06637457010364 0.20039008035008 0.95182201974930 
H17   H     0.86176152008746 0.50790322058407 0.39744737952284 
H18   H     0.13818461001240 0.49189742071745 0.89760020962833 
H19   H     0.72239675006623 0.85044672096816 0.79985197043262 
H20   H     0.27763361002151 0.14840112891928 0.29993052987817 
H21   H     0.78438201012804 0.37926836098031 0.45392216003105 
H22   H     0.21557556987110 0.61996791910920 0.95403056001848 
H23   H     0.71635381006746 0.47687961895321 0.59531717973951 
H24   H     0.28365935996496 0.52163635899256 0.09529965949635 
C1    C     0.86373459014660 0.96893599961246 0.00845024013067 
C2    C     0.13632049011611 0.03096107122388 0.50861260968750 
C3    C     0.89040141008799 0.04133270998261 0.89230601986619 
C4    C     0.10961575005659 0.95872470034057 0.39247289958657 
C5    C     0.87858683008817 0.93931911088247 0.75509895996056 
C6    C     0.12140980984929 0.06066152053922 0.25527734995817 
C7    C     0.87661893009913 0.06631902999777 0.13792689038148 
C8    C     0.12346187985729 0.93363164914595 0.63809605950303 
C9    C     0.93313100001831 0.20026896934674 0.91629850020054 
C10   C     0.06687857007197 0.79999083079081 0.41645038976525 
C11   C     0.83409667994202 0.82782891033631 0.71338192042847 
C12   C     0.16590037993745 0.17192733113850 0.21355336955507 
C13   C     0.91304552996226 0.94481876983847 0.65493030972843 
C14   C     0.08692935007379 0.05526359950481 0.15509157975213 
C15   C     0.91714056986034 0.24259644063381 0.15879743956335 
C16   C     0.08292937011087 0.75758962987436 0.65895227024428 
C17   C     0.94494565012398 0.30531129917498 0.04914702035045 
C18   C     0.05509134995537 0.69501935088101 0.54928944978054 
C19   C     0.82911588986836 0.65659809087520 0.58568071040075 
C20   C     0.17086215010611 0.34307390027967 0.08584433027197 
C21   C     0.96458137006960 0.23439906891022 0.80758730966678 
C22   C     0.03540273013873 0.76599079027371 0.30772902003179 
C23   C     0.79396234005656 0.89892323969937 0.78606784027507 
C24   C     0.20605164998925 0.10058977993505 0.28622466978548 
C25   C     0.95545758996074 0.09838960906433 0.68317622012685 
C26   C     0.04451081012784 0.90189735969466 0.18331287964745 
C27   C     0.90592970008524 0.79444643923041 0.52480478018413 
C28   C     0.09402511004385 0.20556614056847 0.02496458954892 
C29   C     0.86626697011408 0.63821785052659 0.49401941033085 
C30   C     0.13368700995397 0.36165102897758 0.99417639974103 
C31   C     0.75243789997681 0.78256826940664 0.74256597953623 
C32   C     0.24758064008042 0.21649012923740 0.24266852000735 
C33   C     0.78672010988943 0.52405141942097 0.54766317999696 
C34   C     0.21326487995269 0.47522570907604 0.04778285019814 
C35   C     0.74877898008807 0.58147272891571 0.62546614980496 
C36   C     0.25122748990002 0.41743413984615 0.12553310958359 
