data_stdin
_audit_creation_method 'critic2'
_audit_creation_date 2023-8-11
_chemical_formula_sum 'C18 H12'
_cell_formula_units_Z 4
_cell_length_a        13.7789156825
_cell_length_b         4.7982736015
_cell_length_c        18.1632465792
_cell_angle_alpha        90.0018
_cell_angle_beta        87.4394
_cell_angle_gamma        90.0006
_cell_volume          1199.664142
_space_group_crystal_system monoclinic
_space_group_IT_number 14
_space_group_name_H-M_alt 'P2_1/c'
_space_group_name_Hall '-P 2ybc'
loop_
_symmetry_equiv_pos_site_id
_symmetry_equiv_pos_as_xyz
 1 'x,y,z'
 2 '-x,-y,-z'
 3 '-x,-1/2+y,-1/2-z'
 4 'x,-1/2-y,-1/2+z'
loop_
_atom_site_label
_atom_site_type_symbol
_atom_site_fract_x
_atom_site_fract_y
_atom_site_fract_z
H1    H     0.82684299993988 0.77494736899291 0.98124903997118 
H2    H     0.77094261018361 0.10291577903187 0.88932224015597 
H3    H     0.62444175980366 0.39958112988047 0.91652402988224 
H4    H     0.52597379025355 0.31901046977993 0.03281722000080 
H5    H     0.49154318022147 0.05724708053340 0.14298077003359 
H6    H     0.91827519013445 0.88493512019932 0.05364461974809 
H7    H     0.53485281988890 0.68172125081958 0.22999764007522 
H8    H     0.64464613966084 0.33849287913650 0.27187512995371 
H9    H     0.80497252980988 0.10231843086798 0.26568429009990 
H10   H     0.07988828964660 0.68574541048078 0.06057365994045 
H11   H     0.97145293998973 0.08625198001724 0.21990732011441 
H12   H     0.10834142001527 0.27504522036251 0.14230071023811 
C1    C     0.76439707971540 0.90518998043760 0.99522598008518 
C2    C     0.71500158997419 0.87321966995038 0.06492275978640 
C3    C     0.74735992968656 0.69122326041398 0.12270007013118 
C4    C     0.73198280979749 0.08798176970596 0.94270947010285 
C5    C     0.62402297014471 0.01571632046984 0.07535981979518 
C6    C     0.84564178005263 0.58545955041408 0.12670060011139 
C7    C     0.67829218030452 0.61287329008536 0.17937856023518 
C8    C     0.64813512016664 0.25023330991069 0.95715247997988 
C9    C     0.59422131990212 0.20893981096393 0.02208470975377 
C10   C     0.86469935988690 0.36674363081999 0.17805536982380 
C11   C     0.56112019995024 0.94966751948702 0.13724493017238 
C12   C     0.92705242995876 0.69943708987989 0.08674589009961 
C13   C     0.58540596010088 0.74461127007178 0.18518663002324 
C14   C     0.70080048025187 0.40071086002581 0.23102001002226 
C15   C     0.78928252021147 0.27232184003984 0.22828692009699 
C16   C     0.01949413996561 0.59062345097882 0.09204423026342 
C17   C     0.95937780982102 0.25503418080071 0.18136941009405 
C18   C     0.03575077978344 0.36220164020817 0.13836686980838 
