data_stdin
_audit_creation_method 'critic2'
_audit_creation_date 2023-8-11
_chemical_formula_sum 'C18 H12'
_cell_formula_units_Z 4
_cell_length_a        13.8097742206
_cell_length_b        12.1108266914
_cell_length_c         7.4135559600
_cell_angle_alpha        90.0000
_cell_angle_beta        90.0000
_cell_angle_gamma        90.0014
_cell_volume          1239.900792
_space_group_crystal_system orthorhombic
_space_group_IT_number 29
_space_group_name_H-M_alt 'Pca2_1'
_space_group_name_Hall 'P 2c -2ac'
loop_
_symmetry_equiv_pos_site_id
_symmetry_equiv_pos_as_xyz
 1 'x,y,z'
 2 '-x,-y,-1/2+z'
 3 '-1/2-x,y,-1/2+z'
 4 '-1/2+x,-y,z'
loop_
_atom_site_label
_atom_site_type_symbol
_atom_site_fract_x
_atom_site_fract_y
_atom_site_fract_z
H1    H     0.55881998999882 0.44560587994125 0.14399940945203 
H2    H     0.53205729974226 0.64025749966761 0.20939973030157 
H3    H     0.36598330029136 0.72064396991477 0.19630188053634 
H4    H     0.22859024980319 0.60290230980137 0.09654933063452 
H5    H     0.16516012977517 0.42932919029897 0.98936546966304 
H6    H     0.56297824985142 0.32092415990094 0.31303947984835 
H7    H     0.19274870988857 0.23947052959978 0.87990860019421 
H8    H     0.30016959025077 0.09142732015983 0.80483955974551 
H9    H     0.46196056998740 0.00419962006475 0.80703964015343 
H10   H     0.71552336975020 0.22111437961123 0.33913621997934 
H11   H     0.62795601010574 0.99966809013542 0.91598705010473 
H12   H     0.75582934029682 0.06765019027509 0.12531167034492 
C1    C     0.48530656011673 0.47692019014369 0.14165835943941 
C2    C     0.40796128974411 0.40521508979002 0.09512201938240 
C3    C     0.42051375035596 0.28929524996484 0.05166555049382 
C4    C     0.47058383964453 0.58782526015942 0.17631917989313 
C5    C     0.31417806018084 0.45449200984659 0.07302302018009 
C6    C     0.50873036001670 0.22724573960768 0.08428782026020 
C7    C     0.34367527974375 0.23434843038607 0.96104643995740 
C8    C     0.37698923027061 0.63348128970307 0.16669625016254 
C9    C     0.30060275969360 0.56768871024423 0.11290592988687 
C10   C     0.52547598964711 0.12753074991422 0.98431420938582 
C11   C     0.23590890976122 0.39069348999500 0.00376501061688 
C12   C     0.57837240969252 0.25547037041239 0.21707949994463 
C13   C     0.25102211023828 0.28544840986318 0.94457733024578 
C14   C     0.35983816977990 0.12948760019109 0.87810700934223 
C15   C     0.44906322010883 0.08086271005268 0.87985441990468 
C16   C     0.66460309010904 0.19798361017390 0.23366337057271 
C17   C     0.61608573996627 0.07332846996884 0.99765765018727 
C18   C     0.68618877964803 0.10962672975354 0.11684292041534 
