data_stdin
_audit_creation_method 'critic2'
_audit_creation_date 2023-8-11
_chemical_formula_sum 'C18 H12'
_cell_formula_units_Z 4
_cell_length_a         8.0885337549
_cell_length_b        21.5772903201
_cell_length_c         7.5843327669
_cell_angle_alpha        89.9981
_cell_angle_beta       112.7911
_cell_angle_gamma        89.9980
_cell_volume          1220.334590
_space_group_crystal_system monoclinic
_space_group_IT_number 9
_space_group_name_H-M_alt 'Cc'
_space_group_name_Hall 'C -2yc'
loop_
_symmetry_equiv_pos_site_id
_symmetry_equiv_pos_as_xyz
 1 'x,y,z'
 2 'x,-y,-1/2+z'
 3 '-1/2+x,-1/2+y,z'
 4 '-1/2+x,-1/2-y,-1/2+z'
loop_
_atom_site_label
_atom_site_type_symbol
_atom_site_fract_x
_atom_site_fract_y
_atom_site_fract_z
H1    H     0.99834527967308 0.25153641984245 0.98558902038871 
H2    H     0.94683641011760 0.14105102009183 0.01361927964343 
H3    H     0.20018902058520 0.06578300997217 0.10029161059817 
H4    H     0.50134025053420 0.10304428997760 0.12922874977525 
H5    H     0.69311233949151 0.18426334984307 0.09498663011413 
H6    H     0.07341597985068 0.30681229018024 0.21337407021590 
H7    H     0.72976082944715 0.29276201001240 0.00608047963202 
H8    H     0.62039477058936 0.39606166016790 0.92778511023914 
H9    H     0.40480773954342 0.47967231016777 0.91517797985108 
H10   H     0.88640516014944 0.39244798988721 0.23607309930430 
H11   H     0.15464573986544 0.51584522002511 0.98774525032066 
H12   H     0.91507534056169 0.49725568005046 0.11024401025082 
C1    C     0.11179407035801 0.22011178992341 0.02849985940692 
C2    C     0.28404028025917 0.24351937002265 0.05644807050495 
C3    C     0.32254906005555 0.30871662990599 0.04574603034916 
C4    C     0.08188273979586 0.15747425980320 0.04128590944434 
C5    C     0.42290275967390 0.19901874991142 0.08119635966835 
C6    C     0.21318373968721 0.35879533003818 0.06807134958320 
C7    C     0.47804285022193 0.32446220009201 0.01179610062931 
C8    C     0.22394283026475 0.11484567016602 0.08543182019257 
C9    C     0.39112007038036 0.13549252002215 0.10245036003695 
C10   C     0.24293453008161 0.42066737002679 0.01726412023844 
C11   C     0.58808381996258 0.21856011016507 0.07260472007188 
C12   C     0.08554929001602 0.35121923007343 0.15237317956037 
C13   C     0.60958643061437 0.27841558011264 0.02698358061380 
C14   C     0.50479003956260 0.38659261016257 0.96348871006976 
C15   C     0.38735737022152 0.43275121000523 0.95853323066236 
C16   C     0.98109841952870 0.39998939019898 0.16800291971844 
C17   C     0.13182552002751 0.46955981989317 0.03098751033307 
C18   C     0.99946860994767 0.45929257016404 0.10021216994929 
