data_stdin
_audit_creation_method 'critic2'
_audit_creation_date 2023-8-11
_chemical_formula_sum 'C18 H12'
_cell_formula_units_Z 4
_cell_length_a        15.9086891501
_cell_length_b         3.7813058074
_cell_length_c        20.2035230477
_cell_angle_alpha        89.9376
_cell_angle_beta        74.9893
_cell_angle_gamma        89.9782
_cell_volume          1173.883735
_space_group_crystal_system triclinic
_space_group_IT_number 2
_space_group_name_H-M_alt 'P-1'
_space_group_name_Hall '-P 1'
loop_
_symmetry_equiv_pos_site_id
_symmetry_equiv_pos_as_xyz
 1 'x,y,z'
 2 '-x,-y,-z'
loop_
_atom_site_label
_atom_site_type_symbol
_atom_site_fract_x
_atom_site_fract_y
_atom_site_fract_z
H1    H     0.38457705987217 0.80662701883704 0.03001632013572 
H2    H     0.61540246994566 0.30707523046822 0.46986039005180 
H3    H     0.52774157030227 0.76986013100171 0.05222825986332 
H4    H     0.47224684005467 0.27003703902606 0.44766474008183 
H5    H     0.54388605980875 0.54502683012809 0.16504232998288 
H6    H     0.45613313017105 0.04464019960188 0.33496302021402 
H7    H     0.41162643992183 0.42202432967976 0.25820898025112 
H8    H     0.58840823002562 0.92133154090752 0.24186382982949 
H9    H     0.25420123016663 0.42325243037052 0.30230089019715 
H10   H     0.74583404998076 0.92246507932142 0.19777932003154 
H11   H     0.33420211985448 0.39067507061602 0.99386863019573 
H12   H     0.66578959009843 0.89130613114736 0.50623022981696 
H13   H     0.10834505001646 0.54716051128296 0.28542006014145 
H14   H     0.89167351966967 0.04651705869043 0.21460367010406 
H15   H     0.01565027009113 0.70021840041825 0.21356967015431 
H16   H     0.98435725978400 0.19989792118856 0.28638800009071 
H17   H     0.99097090034566 0.80376630890173 0.09889967980916 
H18   H     0.00901677036235 0.30385721903350 0.40101151984165 
H19   H     0.30184201012735 0.39491486941861 0.88215804024149 
H20   H     0.69813747981070 0.89597865010693 0.61794162982034 
H21   H     0.04257543018667 0.76119124987577 0.97527472006560 
H22   H     0.95741770989590 0.26153604960600 0.52465339989773 
H23   H     0.15694854014070 0.59804946098107 0.87073184011676 
H24   H     0.84304213019853 0.09882290911059 0.62926885022405 
C1    C     0.38973148981556 0.70285004058830 0.07890918997947 
C2    C     0.61026282969650 0.20300715967401 0.42102403006659 
C3    C     0.31312449023826 0.60383084010672 0.12897359002357 
C4    C     0.68688153975832 0.10380020014535 0.37101382014568 
C5    C     0.22703377016578 0.60923200985728 0.11735421976124 
C6    C     0.77296973032435 0.10927474073668 0.38263579982103 
C7    C     0.47081890026895 0.68638902874024 0.09181234986242 
C8    C     0.52917883006476 0.18641121939047 0.40812609985473 
C9    C     0.32213683989513 0.52063210031827 0.19604568979795 
C10   C     0.67788247989574 0.02029362062614 0.30398213016408 
C11   C     0.21016601984755 0.60516692036877 0.05026667008830 
C12   C     0.78982973998198 0.10547488907209 0.44972856025208 
C13   C     0.15438951034809 0.61555878086554 0.17548917988245 
C14   C     0.84561890972657 0.11535935965224 0.32450122010691 
C15   C     0.47970673022478 0.56854097888736 0.15573008003281 
C16   C     0.52030793012641 0.06826204978367 0.34426670985933 
C17   C     0.40607254009706 0.49463206885274 0.20730667997917 
C18   C     0.59395165999159 0.99419060923436 0.29272917983215 
C19   C     0.12455529029436 0.68826181049476 0.04416194988473 
C20   C     0.87543691979193 0.18854249082247 0.45579781982759 
C21   C     0.24637706991048 0.48480967928102 0.25157980001054 
C22   C     0.75364880990184 0.98425471081170 0.24847017999735 
C23   C     0.27193538993467 0.49263595124246 0.99001016978255 
C24   C     0.72805628011322 0.99322256105144 0.51003878016668 
C25   C     0.16588695974659 0.54984929968087 0.24213274023873 
C26   C     0.83413166006896 0.04936945985997 0.25788929981900 
C27   C     0.06943778976232 0.68620615990506 0.16758306002695 
C28   C     0.93056514995747 0.18603966910115 0.33237792001124 
C29   C     0.05560976992243 0.74001391897061 0.10442638000280 
C30   C     0.94438384016004 0.24007763115919 0.39551050015436 
C31   C     0.25313101992108 0.48981071883826 0.92696059974837 
C32   C     0.74685600972546 0.99061352991876 0.57309152014640 
C33   C     0.10782443994218 0.69345184943070 0.97871748993864 
C34   C     0.89216742003672 0.19389181993545 0.52123968980089 
C35   C     0.17105672029249 0.59948600088788 0.92065603998829 
C36   C     0.82893302017184 0.10017491024098 0.57934463997524 
