data_stdin
_audit_creation_method 'critic2'
_audit_creation_date 2023-8-11
_chemical_formula_sum 'C18 H12'
_cell_formula_units_Z 8
_cell_length_a        30.0385387397
_cell_length_b         3.9353305646
_cell_length_c        21.0647240736
_cell_angle_alpha        89.9770
_cell_angle_beta        68.1431
_cell_angle_gamma        89.9966
_cell_volume          2311.098245
_space_group_crystal_system triclinic
_space_group_IT_number 2
_space_group_name_H-M_alt 'P-1'
_space_group_name_Hall '-P 1'
loop_
_symmetry_equiv_pos_site_id
_symmetry_equiv_pos_as_xyz
 1 'x,y,z'
 2 '-x,-y,-z'
 3 '-1/2+x,-1/2+y,z'
 4 '-1/2-x,-1/2-y,-z'
loop_
_atom_site_label
_atom_site_type_symbol
_atom_site_fract_x
_atom_site_fract_y
_atom_site_fract_z
H1    H     0.06108685003887 0.30842836126710 0.72560827024703 
H2    H     0.93889414020462 0.30844822957529 0.77446774977851 
H3    H     0.99993394995515 0.13231253116792 0.83372975002046 
H4    H     0.00004837994026 0.13249729908829 0.66637806992285 
H5    H     0.00713782012635 0.28205853992775 0.94468106000663 
H6    H     0.99285050993182 0.28221087972118 0.55540293013347 
H7    H     0.08057248004814 0.58114859956015 0.94312854021152 
H8    H     0.91940833980282 0.58119506113691 0.55690466017639 
H9    H     0.15966769986831 0.80232827889691 0.88194156015408 
H10   H     0.84031371011490 0.80218891985146 0.61805322003767 
H11   H     0.05505356000211 0.70344558029614 0.68207447980257 
H12   H     0.94491797983419 0.70326291059029 0.81796590023688 
H13   H     0.22487503994253 0.95774176942773 0.77299085992146 
H14   H     0.77511134996293 0.95759466002246 0.72697048983946 
H15   H     0.25644383015491 0.01546248986610 0.65301357982229 
H16   H     0.74354109997759 0.01537659016609 0.84693813001705 
H17   H     0.24712914995295 0.01814285982486 0.54095994010476 
H18   H     0.75285860010119 0.01829251962537 0.95898694013332 
H19   H     0.04652375996632 0.76610688124853 0.57291445014328 
H20   H     0.95344265992832 0.76602679889138 0.92711427014451 
H21   H     0.19722297006416 0.97925056993362 0.47536870993114 
H22   H     0.80275847008299 0.97956438882948 0.02458715974818 
H23   H     0.11762367993900 0.88950457048275 0.46683032977289 
H24   H     0.88235129981386 0.88973931021047 0.03316233025164 
C1    C     0.06420429994527 0.39248277063950 0.77276158018489 
C2    C     0.93577623984995 0.39252390033824 0.72730331012306 
C3    C     0.10462455011334 0.58767735110622 0.76996702012507 
C4    C     0.89535427004431 0.58764567919908 0.73006873999687 
C5    C     0.13989919011493 0.72575847018038 0.70753201012161 
C6    C     0.86007945006624 0.72568693876100 0.79248136980933 
C7    C     0.02998133988212 0.28566075886207 0.83403101019313 
C8    C     0.96999836990179 0.28576941901689 0.66604961004928 
C9    C     0.11125045996629 0.63467411909139 0.83342616981728 
C10   C     0.88873122994117 0.63462445942778 0.66659908006217 
C11   C     0.13249760996329 0.76891264994366 0.64363702994777 
C12   C     0.86747931990783 0.76887964076338 0.85637159001770 
C13   C     0.18418222013003 0.83962574873788 0.70987978990807 
C14   C     0.81579874980499 0.83952848933762 0.79010914022220 
C15   C     0.03448149986575 0.36436618017325 0.89653857988240 
C16   C     0.96550302000468 0.36447919947248 0.60352781006387 
C17   C     0.07512630989959 0.53083794876820 0.89567692001986 
C18   C     0.92485628977175 0.53087641017631 0.60436266025566 
C19   C     0.17224120991244 0.86909560896148 0.58332758014821 
C20   C     0.82773991009390 0.86917683932420 0.91665717980652 
C21   C     0.15490450004547 0.77529558907435 0.83341024975068 
C22   C     0.84507760005603 0.77517227100285 0.66658914000706 
C23   C     0.08721316009797 0.74514850006440 0.63715684993241 
C24   C     0.91275834986230 0.74506035878232 0.86286871992122 
C25   C     0.19082162988179 0.86054980016375 0.77337299024951 
C26   C     0.80916151997798 0.86041092076122 0.72661142017442 
C27   C     0.22261915989474 0.94163613084131 0.64904178012854 
C28   C     0.77736453003278 0.94158401124256 0.85092490986630 
C29   C     0.21742517985656 0.94536596908960 0.58744581999439 
C30   C     0.78255938993911 0.94543482073737 0.91251941000404 
C31   C     0.08207908002764 0.78748829092209 0.57507224018219 
C32   C     0.91788993002563 0.78747438047246 0.92494764000773 
C33   C     0.16613956012432 0.90743977114711 0.52025613974557 
C34   C     0.83383956005737 0.90763737048397 0.97972227012338 
C35   C     0.12196774007873 0.86154656954682 0.51555925985712 
C36   C     0.87800598011419 0.86169999980089 0.98443934014154 
