data_stdin
_audit_creation_method 'critic2'
_audit_creation_date 2023-8-11
_chemical_formula_sum 'C18 H12'
_cell_formula_units_Z 2
_cell_length_a         3.9154336525
_cell_length_b         9.8202785784
_cell_length_c        15.0103573853
_cell_angle_alpha        90.0023
_cell_angle_beta        88.6169
_cell_angle_gamma        89.9974
_cell_volume           576.989834
_space_group_crystal_system monoclinic
_space_group_IT_number 4
_space_group_name_H-M_alt 'P2_1'
_space_group_name_Hall 'P 2yb'
loop_
_symmetry_equiv_pos_site_id
_symmetry_equiv_pos_as_xyz
 1 'x,y,z'
 2 '-x,-1/2+y,-z'
loop_
_atom_site_label
_atom_site_type_symbol
_atom_site_fract_x
_atom_site_fract_y
_atom_site_fract_z
H1    H     0.66636910967886 0.99458649026813 0.16599868011190 
H2    H     0.49688681964080 0.76542885021343 0.21212496968984 
H3    H     0.17951569912221 0.72757848988998 0.35610274024368 
H4    H     0.07066949882543 0.92372569006440 0.45729386027465 
H5    H     0.14764452933778 0.16126509960915 0.49573213986337 
H6    H     0.37267662080734 0.11491766041180 0.09588258978135 
H7    H     0.40481250931463 0.38596851950857 0.46115827021511 
H8    H     0.70270138981420 0.53793608050474 0.36274650980822 
H9    H     0.95063737884761 0.59617683972290 0.21393536025907 
H10   H     0.53526937096531 0.19145333995085 0.94714226968166 
H11   H     0.01297645904514 0.54642646992586 0.05593771984282 
H12   H     0.88430424043886 0.40289933954787 0.92495106997276 
C1    C     0.51890589104012 0.98205949041999 0.22755864995561 
C2    C     0.44425076995876 0.09763700012109 0.28119237973775 
C3    C     0.53642767042284 0.23568235970785 0.25623018006341 
C4    C     0.42743506948358 0.85194722998306 0.25416160006902 
C5    C     0.29383998056299 0.07272926013930 0.36779245979090 
C6    C     0.62186833938045 0.27884322986943 0.16610412005631 
C7    C     0.54370664999116 0.33527298965354 0.32463178984351 
C8    C     0.25422906028531 0.83014754016442 0.33610212968417 
C9    C     0.19227080884943 0.93931843949424 0.39209832025168 
C10   C     0.78180659927535 0.40876947007909 0.15205089012128 
C11   C     0.26721903080131 0.18115572963094 0.43071450996614 
C12   C     0.53121013051523 0.20495978048628 0.08910573029133 
C13   C     0.40382865926269 0.30573743965993 0.41107714013421 
C14   C     0.69135931016469 0.46585570958287 0.30764717021686 
C15   C     0.82319235059837 0.49890467011678 0.22544920968574 
C16   C     0.61937731098554 0.24975990029115 0.00430562970265 
C17   C     0.88068892918589 0.44972479002109 0.06486890969004 
C18   C     0.80707192884918 0.37060068020433 0.99183173982249 
