data_stdin
_audit_creation_method 'critic2'
_audit_creation_date 2023-8-11
_chemical_formula_sum 'C18 H12'
_cell_formula_units_Z 2
_cell_length_a         9.6735708836
_cell_length_b         5.8087020730
_cell_length_c        15.6662985328
_cell_angle_alpha        57.9002
_cell_angle_beta        60.2505
_cell_angle_gamma        91.9124
_cell_volume           592.283459
_space_group_crystal_system triclinic
_space_group_IT_number 2
_space_group_name_H-M_alt 'P-1'
_space_group_name_Hall '-P 1'
loop_
_symmetry_equiv_pos_site_id
_symmetry_equiv_pos_as_xyz
 1 'x,y,z'
 2 '-x,-y,-z'
loop_
_atom_site_label
_atom_site_type_symbol
_atom_site_fract_x
_atom_site_fract_y
_atom_site_fract_z
H1    H     0.71053616078396 0.52456943126354 0.17015244945818 
H2    H     0.50056838965947 0.66070836945671 0.13084839996837 
H3    H     0.34774083933692 0.93511559976157 0.19706343036135 
H4    H     0.40274656997100 0.05343559967646 0.31190289024793 
H5    H     0.53395087992835 0.01580320965872 0.41216893021609 
H6    H     0.95912393967335 0.75906413971766 0.05236138040672 
H7    H     0.70698083024077 0.80513789014900 0.48504513999359 
H8    H     0.88088638945893 0.52708449967277 0.49584342018785 
H9    H     0.06466295983745 0.29551159928141 0.41888321031190 
H10   H     0.16954396062011 0.58932159988925 0.96278353971129 
H11   H     0.20932957975507 0.21182582898490 0.26752495045085 
H12   H     0.28979658048202 0.29345579027845 0.07277085967767 
C1    C     0.65205462004981 0.65528278958778 0.19514389017236 
C2    C     0.69375035966528 0.73219554894459 0.25417582040136 
C3    C     0.81725480998187 0.65581294963939 0.27973596035786 
C4    C     0.53062631969462 0.72704173053920 0.17498061022448 
C5    C     0.59470990042348 0.86935627076450 0.30080970967162 
C6    C     0.94740058962825 0.56826818079866 0.21962857015377 
C7    C     0.80767269020924 0.66190336017503 0.37189384994244 
C8    C     0.44349960997341 0.88087177013681 0.21293047977991 
C9    C     0.47464514979354 0.94758680062963 0.27591453011907 
C10   C     0.03214636967445 0.42871946862252 0.27406101055775 
C11   C     0.60860284049823 0.90784367114217 0.37923464963634 
C12   C     0.00505401048481 0.62658033017796 0.10471406995188 
C13   C     0.70520053010584 0.79464964883247 0.41817546023629 
C14   C     0.89890636971850 0.53135177036636 0.42064414011621 
C15   C     0.00026262986162 0.40485980084768 0.37815105977686 
C16   C     0.12632404028566 0.53197336930222 0.05281288033954 
C17   C     0.15177656032400 0.32571968927366 0.22131558981584 
C18   C     0.19704703076824 0.37209823097352 0.11317165950656 
