data_stdin
_audit_creation_method 'critic2'
_audit_creation_date 2023-8-11
_chemical_formula_sum 'C18 H12'
_cell_formula_units_Z 2
_cell_length_a         8.1750270650
_cell_length_b        10.6301468400
_cell_length_c         7.9294968462
_cell_angle_alpha        90.0001
_cell_angle_beta        59.0281
_cell_angle_gamma        90.0004
_cell_volume           590.836839
_space_group_crystal_system monoclinic
_space_group_IT_number 7
_space_group_name_H-M_alt 'Pc'
_space_group_name_Hall 'P -2yc'
loop_
_symmetry_equiv_pos_site_id
_symmetry_equiv_pos_as_xyz
 1 'x,y,z'
 2 'x,-y,-1/2+z'
loop_
_atom_site_label
_atom_site_type_symbol
_atom_site_fract_x
_atom_site_fract_y
_atom_site_fract_z
H1    H     0.99714212010557 0.03966383005574 0.98159171021540 
H2    H     0.05143931020694 0.81278956976399 0.93957246014792 
H3    H     0.83742194002009 0.67525330045049 0.88114082022001 
H4    H     0.55043941009743 0.76747150008367 0.89893130009515 
H5    H     0.34590852017061 0.94503045964267 0.94840537058104 
H6    H     0.10945528051642 0.16411190964869 0.75967153948252 
H7    H     0.25890748020224 0.16772825954690 0.04625365935184 
H8    H     0.32342435966752 0.36878653017633 0.13672300038589 
H9    H     0.53936300026374 0.51593771043013 0.17428434070689 
H10   H     0.32636292987001 0.32072277966261 0.76142145943641 
H11   H     0.85242950967735 0.56518697969589 0.12256044064690 
H12   H     0.19786235048894 0.51904472041691 0.96085794006319 
C1    C     0.90477803943894 0.98265306008679 0.95169314072960 
C2    C     0.75071542949531 0.04006590970957 0.94671232002211 
C3    C     0.71330576049120 0.17403909023600 0.96935812928366 
C4    C     0.93349312013298 0.85394511005378 0.93170327013555 
C5    C     0.61590358959536 0.95807169013237 0.93786861017534 
C6    C     0.84992071924713 0.26815628973400 0.95059472039407 
C7    C     0.52766859970313 0.21561010964244 0.02268063981907 
C8    C     0.80988798036290 0.77568199002725 0.90490976008000 
C9    C     0.65143296049750 0.82732687974116 0.91234611995619 
C10   C     0.78189932008356 0.38973924030073 0.03722817966036 
C11   C     0.44308696002250 0.00807865010950 0.96300486944029 
C12   C     0.05023926995083 0.24950617957573 0.84511925993633 
C13   C     0.39666742025391 0.13125864961568 0.01326896041550 
C14   C     0.46865565018860 0.34114584002112 0.09183269941395 
C15   C     0.58767088051955 0.42279909023776 0.11054710934133 
C16   C     0.17348424935840 0.33906947018319 0.84465029016001 
C17   C     0.90928323992582 0.47685645987055 0.04418552039019 
C18   C     0.10210582992466 0.45140888960527 0.95273704022485 
