data_stdin
_audit_creation_method 'critic2'
_audit_creation_date 2023-8-11
_chemical_formula_sum 'C18 H12'
_cell_formula_units_Z 4
_cell_length_a         3.8789153476
_cell_length_b        18.4085698373
_cell_length_c        16.2736698466
_cell_angle_alpha        90.0072
_cell_angle_beta        79.1556
_cell_angle_gamma        90.0033
_cell_volume          1141.274417
_space_group_crystal_system monoclinic
_space_group_IT_number 14
_space_group_name_H-M_alt 'P2_1/c'
_space_group_name_Hall '-P 2ybc'
loop_
_symmetry_equiv_pos_site_id
_symmetry_equiv_pos_as_xyz
 1 'x,y,z'
 2 '-x,-y,-z'
 3 '-x,-1/2+y,-1/2-z'
 4 'x,-1/2-y,-1/2+z'
loop_
_atom_site_label
_atom_site_type_symbol
_atom_site_fract_x
_atom_site_fract_y
_atom_site_fract_z
H1    H     0.05372227091923 0.69279416986452 0.04967388990606 
H2    H     0.92991822958530 0.57712401992062 0.98791853982394 
H3    H     0.54553122919785 0.48469901992231 0.07307532024503 
H4    H     0.33020727021984 0.50766753017118 0.22410619983252 
H5    H     0.31370076075410 0.58069801990166 0.34746405990304 
H6    H     0.74401885015765 0.77786095002669 0.04797562027660 
H7    H     0.49567434934512 0.69101548980096 0.41582886018334 
H8    H     0.78336511090694 0.80612367988976 0.40911318011015 
H9    H     0.07781348909883 0.91084521985691 0.32848045993672 
H10   H     0.95072155937223 0.88901518986686 0.97399407030918 
H11   H     0.23458366070108 0.97545829988387 0.19768332986047 
H12   H     0.22428866991899 0.98795669992666 0.04645174030026 
C1    C     0.87507599062511 0.65499801973441 0.08721870021382 
C2    C     0.73343127059319 0.67226775025099 0.17182091987226 
C3    C     0.78639681002358 0.74117575014942 0.21066562998591 
C4    C     0.81114228914249 0.58886441995587 0.05263369991667 
C5    C     0.55007268111911 0.61538599988401 0.22226914016176 
C6    C     0.89762607037690 0.80722966022879 0.16488891015853 
C7    C     0.72286961102485 0.74439760994659 0.29939484994218 
C8    C     0.60218519995321 0.53605326019059 0.10094456972532 
C9    C     0.47967270968270 0.54903117974696 0.18483562995626 
C10   C     0.01358397948262 0.86759199005181 0.20833850992439 
C11   C     0.45517492005974 0.62451946022903 0.31061049990789 
C12   C     0.87215289076628 0.81851548024376 0.08005003024812 
C13   C     0.55385773092568 0.68548604978581 0.34793497011535 
C14   C     0.82683131904107 0.80665022994654 0.34095879013753 
C15   C     0.98433508063971 0.86468067981359 0.29694324987054 
C16   C     0.98340825895065 0.88230124018586 0.03855797022696 
C17   C     0.13710656895798 0.93135240014268 0.16378293022099 
C18   C     0.12845817898826 0.93851818010418 0.07979438990161 
