data_stdin
_audit_creation_method 'critic2'
_audit_creation_date 2023-8-11
_chemical_formula_sum 'C18 H12'
_cell_formula_units_Z 8
_cell_length_a         9.5586340843
_cell_length_b        26.9848275502
_cell_length_c         9.4080843700
_cell_angle_alpha        90.0002
_cell_angle_beta        90.0000
_cell_angle_gamma        90.0019
_cell_volume          2426.703334
_space_group_crystal_system orthorhombic
_space_group_IT_number 61
_space_group_name_H-M_alt 'Pbca'
_space_group_name_Hall '-P 2ac 2ab'
loop_
_symmetry_equiv_pos_site_id
_symmetry_equiv_pos_as_xyz
 1 'x,y,z'
 2 '-x,-y,-z'
 3 '-x,-1/2+y,-1/2-z'
 4 'x,-1/2-y,-1/2+z'
 5 '-1/2-x,-y,-1/2+z'
 6 '-1/2+x,y,-1/2-z'
 7 '-1/2+x,-1/2-y,-z'
 8 '-1/2-x,-1/2+y,z'
loop_
_atom_site_label
_atom_site_type_symbol
_atom_site_fract_x
_atom_site_fract_y
_atom_site_fract_z
H1    H     0.54963700956576 0.96490966998291 0.97730291978560 
H2    H     0.67313473988898 0.01680872007320 0.15053197004439 
H3    H     0.78844467047347 0.97842099982135 0.36159973998123 
H4    H     0.75758481953449 0.88847113016299 0.40721056002635 
H5    H     0.65077919957598 0.80980609001093 0.35013715017232 
H6    H     0.64309643975051 0.93450750002257 0.81466771011954 
H7    H     0.49388863013892 0.75978356989767 0.19693045953590 
H8    H     0.34294951994660 0.75172006983364 0.99338082985665 
H9    H     0.25578596951746 0.78190998999880 0.76153552994124 
H10   H     0.58464557977184 0.95489581001291 0.56856228047618 
H11   H     0.28945397051458 0.83496722010738 0.55630580011955 
H12   H     0.40613304039035 0.90565918003808 0.43633821955744 
C1    C     0.60021666043278 0.94743505995799 0.06746599975512 
C2    C     0.58803354029634 0.89544898986019 0.08507832956922 
C3    C     0.51747566982638 0.86333531016163 0.98440946974386 
C4    C     0.66931062010673 0.97679664009517 0.16543163017920 
C5    C     0.64063303051274 0.87487144981839 0.21505637986947 
C6    C     0.48868497041942 0.87619760991436 0.83753220973414 
C7    C     0.47475250051810 0.81581103009867 0.03289536980616 
C8    C     0.73186372962728 0.95537350994182 0.28613626982897 
C9    C     0.71584622024073 0.90526479011214 0.31094927006663 
C10   C     0.39238386038481 0.84632481003683 0.75780811040802 
C11   C     0.61041761977355 0.82462239983947 0.25048253973498 
C12   C     0.55878611991649 0.91457089002249 0.76286084996279 
C13   C     0.52483066033355 0.79700971013659 0.16535227040742 
C14   C     0.37936538045492 0.78692954984409 0.95039347985050 
C15   C     0.33307498046994 0.80312691984292 0.82107417003808 
C16   C     0.52858210043434 0.92520963986947 0.62234177976018 
C17   C     0.36359590001621 0.85802813015835 0.61416184951742 
C18   C     0.42862865002244 0.89728091003160 0.54715630029707 
