data_stdin
_audit_creation_method 'critic2'
_audit_creation_date 2023-8-11
_chemical_formula_sum 'C18 H12'
_cell_formula_units_Z 4
_cell_length_a        14.5536706415
_cell_length_b        19.4846357110
_cell_length_c         4.1747636865
_cell_angle_alpha        90.0000
_cell_angle_beta        90.0029
_cell_angle_gamma        89.9989
_cell_volume          1183.850139
_space_group_crystal_system orthorhombic
_space_group_IT_number 33
_space_group_name_H-M_alt 'Pna2_1'
_space_group_name_Hall 'P 2c -2n'
loop_
_symmetry_equiv_pos_site_id
_symmetry_equiv_pos_as_xyz
 1 'x,y,z'
 2 '-x,-y,-1/2+z'
 3 '-1/2-x,-1/2+y,-1/2+z'
 4 '-1/2+x,-1/2-y,z'
loop_
_atom_site_label
_atom_site_type_symbol
_atom_site_fract_x
_atom_site_fract_y
_atom_site_fract_z
H1    H     0.20897588013132 0.24394827985774 0.01331394891991 
H2    H     0.21894201006392 0.13512036976533 0.30359372913509 
H3    H     0.36164289998721 0.10375180004258 0.60108319932814 
H4    H     0.49724545016091 0.18094773000996 0.57296846886052 
H5    H     0.57419417033819 0.27914702996813 0.35111371039233 
H6    H     0.16322531025894 0.32624839007091 0.21956677985681 
H7    H     0.57298554977710 0.38066358989887 0.99108457965555 
H8    H     0.49454181989759 0.46114904992384 0.66179551889907 
H9    H     0.35063630988407 0.51426566012165 0.46293760991331 
H10   H     0.02534620021294 0.38836543021661 0.06705039066558 
H11   H     0.18673504023357 0.52548098996409 0.48741367116758 
H12   H     0.03410881973761 0.48771556006368 0.68764344000573 
C1    C     0.27026506009474 0.23309974004938 0.15238067032685 
C2    C     0.34418478996224 0.28057629991810 0.14896431028579 
C3    C     0.34069592002130 0.34733487986334 0.99496260051675 
C4    C     0.27663683980129 0.17075984977102 0.31000283013789 
C5    C     0.42897448002093 0.25809702976870 0.28887139984425 
C6    C     0.25668333971091 0.38368700018712 0.91612945886347 
C7    C     0.42552662003313 0.37983008984634 0.92255562047445 
C8    C     0.35754511983128 0.15236775985914 0.47357372996319 
C9    C     0.43276979030313 0.19534575005154 0.45865588063089 
C10   C     0.26171621969744 0.44443382024574 0.72207705905835 
C11   C     0.51076628978813 0.29687480975993 0.24003424013151 
C12   C     0.16902809982080 0.36644141975924 0.04108276006983 
C13   C     0.50967756005715 0.35328138018940 0.04653744107097 
C14   C     0.42787349030927 0.44015039980865 0.72893622041477 
C15   C     0.34881316971614 0.46993917980624 0.62198314964849 
C16   C     0.09082195033903 0.40294864988776 0.96060679026232 
C17   C     0.18066434002606 0.48040511984401 0.64038442056437 
C18   C     0.09598584015166 0.45966619981249 0.75303164046332 
