data_stdin
_audit_creation_method 'critic2'
_audit_creation_date 2023-8-11
_chemical_formula_sum 'C18 H12'
_cell_formula_units_Z 4
_cell_length_a        15.3563288999
_cell_length_b         3.8797959949
_cell_length_c        20.3823678170
_cell_angle_alpha        89.9922
_cell_angle_beta        72.7989
_cell_angle_gamma        89.9822
_cell_volume          1160.054205
_space_group_crystal_system triclinic
_space_group_IT_number 2
_space_group_name_H-M_alt 'P-1'
_space_group_name_Hall '-P 1'
loop_
_symmetry_equiv_pos_site_id
_symmetry_equiv_pos_as_xyz
 1 'x,y,z'
 2 '-x,-y,-z'
loop_
_atom_site_label
_atom_site_type_symbol
_atom_site_fract_x
_atom_site_fract_y
_atom_site_fract_z
H1    H     0.62542800685922 0.52756191407770 0.51614515981179 
H2    H     0.37463829733929 0.02775672872219 0.98378388410672 
H3    H     0.62182694594883 0.71843094637063 0.63074630213465 
H4    H     0.37822947150947 0.21956712664748 0.86923298416198 
H5    H     0.76457961629111 0.90635051284074 0.65546481315161 
H6    H     0.23543702367499 0.40762173012693 0.84453591917710 
H7    H     0.91216644709591 0.86079928079660 0.56393868598631 
H8    H     0.08784816483067 0.36122621392716 0.93602133090495 
H9    H     0.00056086809266 0.67577138952485 0.45102324528390 
H10   H     0.99948354442480 0.17561891735140 0.04888605514335 
H11   H     0.60867286870320 0.84609995205426 0.44805927609724 
H12   H     0.39141341068189 0.34550509507529 0.05187220755382 
H13   H     0.00842153943359 0.39235251479641 0.34052706609292 
H14   H     0.99164615170940 0.89211455616757 0.15938943107908 
H15   H     0.93846037472174 0.18469062423543 0.25917409901358 
H16   H     0.06157763888406 0.68479577421638 0.24078151046379 
H17   H     0.80373217397609 0.11335838096485 0.21680867391247 
H18   H     0.19626723832779 0.61369203986114 0.28321712928173 
H19   H     0.48373774602974 0.83752095647100 0.39737268550772 
H20   H     0.51629725274790 0.33681445802601 0.10259701265863 
H21   H     0.64743825217787 0.24782181146724 0.22645200694440 
H22   H     0.35251812061585 0.74789622124037 0.27359211879092 
H23   H     0.50009259274687 0.52724117695718 0.28669701203789 
H24   H     0.49988767356831 0.02692220477411 0.21333595436380 
C1    C     0.68813670138152 0.61893660060923 0.52439028200193 
C2    C     0.31191359880458 0.11922758592293 0.97555668517424 
C3    C     0.77029580000068 0.61348726874564 0.46942033408297 
C4    C     0.22975256236210 0.11347086847263 0.03052229244301 
C5    C     0.77614227241672 0.51793929480340 0.39939979499524 
C6    C     0.22391198179467 0.01775012861981 0.10054148250784 
C7    C     0.68624276861924 0.72073065419549 0.58986041691967 
C8    C     0.31380319543478 0.22153105373118 0.91010873602746 
C9    C     0.85274928196016 0.68639448853911 0.48623950102519 
C10   C     0.14728950972801 0.18643364500178 0.01370033332904 
C11   C     0.70021473403019 0.52361499589291 0.37075533595041 
C12   C     0.29982657534048 0.02335325849446 0.12920374386439 
C13   C     0.86283469197494 0.41845973169862 0.35547464423321 
C14   C     0.13722310394051 0.91829595249371 0.14446026811666 
C15   C     0.76664333826569 0.82226646249960 0.60413497005212 
C16   C     0.23338473844379 0.32312795074882 0.89584328970738 
C17   C     0.84861539835151 0.80026656094153 0.55300391302976 
C18   C     0.15140978428089 0.30068452019617 0.94695500234431 
C19   C     0.71126707923630 0.37239876848997 0.30448620818871 
C20   C     0.28875140733928 0.87229666870423 0.19550000867356 
C21   C     0.93877464217725 0.62095505735309 0.43714398860423 
C22   C     0.06127135522027 0.12081175748596 0.06277604324144 
C23   C     0.61641341220538 0.69474715615128 0.40196779461764 
C24   C     0.38363667449231 0.19427784866051 0.09799087115723 
C25   C     0.94310501767724 0.46992342113159 0.37585351523189 
C26   C     0.05695379741255 0.96971527358290 0.12406767519065 
C27   C     0.87128261882448 0.27157466555734 0.28977457666263 
C28   C     0.12875730943016 0.77156219504098 0.21018387224694 
C29   C     0.79745631136374 0.23608746950328 0.26609002502214 
C30   C     0.20256188820895 0.73617119696391 0.23390216957860 
C31   C     0.54596671709230 0.69564335484632 0.37260337717457 
C32   C     0.45406058375506 0.19512120378508 0.12737808420725 
C33   C     0.63761674902181 0.37220311820839 0.27606158758092 
C34   C     0.36237490963591 0.87208758308228 0.22395353252562 
C35   C     0.55573295395852 0.52737841549570 0.30965845489544 
C36   C     0.44426595472831 0.02705524555908 0.19035539734754 
