data_stdin
_audit_creation_method 'critic2'
_audit_creation_date 2023-8-11
_chemical_formula_sum 'C18 H12'
_cell_formula_units_Z 4
_cell_length_a        12.6458792967
_cell_length_b        11.4689870100
_cell_length_c         9.3762696951
_cell_angle_alpha        89.9997
_cell_angle_beta       119.6799
_cell_angle_gamma        89.9998
_cell_volume          1181.480526
_space_group_crystal_system monoclinic
_space_group_IT_number 14
_space_group_name_H-M_alt 'P2_1/c'
_space_group_name_Hall '-P 2ybc'
loop_
_symmetry_equiv_pos_site_id
_symmetry_equiv_pos_as_xyz
 1 'x,y,z'
 2 '-x,-y,-z'
 3 '-x,-1/2+y,-1/2-z'
 4 'x,-1/2-y,-1/2+z'
loop_
_atom_site_label
_atom_site_type_symbol
_atom_site_fract_x
_atom_site_fract_y
_atom_site_fract_z
H1    H     0.65614112998278 0.93594019987281 0.54681216955835 
H2    H     0.62161309970023 0.13350338032363 0.60679604022325 
H3    H     0.69946821028095 0.30429591015456 0.52079808049738 
H4    H     0.82036747988849 0.26926461972460 0.38059687016255 
H5    H     0.91784412996592 0.14069649993985 0.28129855991152 
H6    H     0.54782124012772 0.84452191038736 0.35989341053443 
H7    H     0.97978379043575 0.94043774003014 0.25271484031488 
H8    H     0.97808907034235 0.73726830962008 0.28715882039051 
H9    H     0.89819291974741 0.55836500033423 0.35048239985186 
H10   H     0.45432246024290 0.66437117992217 0.38196355968818 
H11   H     0.74613659972642 0.46519736998232 0.39376628031810 
H12   H     0.55469341970585 0.47268540038356 0.40865168964954 
C1    C     0.68621861002604 0.00751966983643 0.50015418991842 
C2    C     0.74829035972339 0.98418759007345 0.41187131014386 
C3    C     0.77095327993083 0.86779098006832 0.37231837010192 
C4    C     0.66894931952571 0.11996529021092 0.53783664954429 
C5    C     0.80042191016799 0.08248046981584 0.37398000033757 
C6    C     0.70926179950950 0.76307341991056 0.37963463970412 
C7    C     0.86196550984204 0.85507196024751 0.32663527988724 
C8    C     0.71372587970431 0.21612922979212 0.49073920006903 
C9    C     0.77985209995678 0.19683419008175 0.41195135060822 
C10   C     0.75976452001027 0.65133412983695 0.37804410997920 
C11   C     0.87952007017923 0.06463523039761 0.30846552960285 
C12   C     0.59635656974663 0.76301320031282 0.37763931036769 
C13   C     0.91281964005067 0.95469466974286 0.29188167957566 
C14   C     0.90593463032200 0.74227788983265 0.31815991983145 
C15   C     0.86158229979226 0.64407406006034 0.35216103958018 
C16   C     0.54246382017029 0.66092562967414 0.38817099994193 
C17   C     0.70410585040668 0.54836966002173 0.39242371034127 
C18   C     0.59793945986563 0.55238706973868 0.39993344008120 
