data_stdin
_audit_creation_method 'critic2'
_audit_creation_date 2023-8-11
_chemical_formula_sum 'C18 H12'
_cell_formula_units_Z 2
_cell_length_a         7.8438387322
_cell_length_b        13.8331891600
_cell_length_c         5.8042249045
_cell_angle_alpha        89.9966
_cell_angle_beta        68.3123
_cell_angle_gamma        90.0007
_cell_volume           585.207788
_space_group_crystal_system monoclinic
_space_group_IT_number 4
_space_group_name_H-M_alt 'P2_1'
_space_group_name_Hall 'P 2yb'
loop_
_symmetry_equiv_pos_site_id
_symmetry_equiv_pos_as_xyz
 1 'x,y,z'
 2 '-x,-1/2+y,-z'
loop_
_atom_site_label
_atom_site_type_symbol
_atom_site_fract_x
_atom_site_fract_y
_atom_site_fract_z
H1    H     0.19070449966884 0.99643025020957 0.89056424031420 
H2    H     0.03946983066509 0.89711709994661 0.25777459955975 
H3    H     0.21418663031146 0.83654683001916 0.51235207997581 
H4    H     0.54713752059329 0.87043915032636 0.37547028916286 
H5    H     0.82699785064215 0.93407518027188 0.07323393980288 
H6    H     0.19071850945160 0.13737014026559 0.91863420092221 
H7    H     0.99036690924926 0.02055683001613 0.67577633049312 
H8    H     0.99025502948968 0.11320799983990 0.33378799988356 
H9    H     0.82668616993900 0.19972098005176 0.09983985968565 
H10   H     0.03929180948684 0.23668842007311 0.70276041007685 
H11   H     0.54672717991738 0.26338721993901 0.07755396009623 
H12   H     0.21379162998973 0.29727503999987 0.27360426943146 
C1    C     0.26779227983150 0.97457010015556 0.00317093951975 
C2    C     0.45427697030285 0.00243804978597 0.93163675944627 
C3    C     0.54700278997255 0.06689663998875 0.72644937925194 
C4    C     0.18330102010242 0.91635348029215 0.20763459010883 
C5    C     0.55722246038432 0.95840772011338 0.06297199057164 
C6    C     0.45417629985996 0.13136056990435 0.61404425029814 
C7    C     0.74185148975761 0.06689088998871 0.62901950996253 
C8    C     0.28147515020255 0.88162977002456 0.35042662078153 
C9    C     0.46689317049395 0.90096320987087 0.27496373961248 
C10   C     0.55700608034025 0.17539619984859 0.37983467079918 
C11   C     0.75177959966142 0.96851771990131 0.97097940999185 
C12   C     0.26770544953716 0.15922988027348 0.72898944004066 
C13   C     0.84116160966159 0.01682407022880 0.75469503960162 
C14   C     0.84104860975274 0.11695401985880 0.40409093015708 
C15   C     0.75155773981370 0.16527687986831 0.27726259083379 
C16   C     0.18311029000092 0.21745363003704 0.60907913924125 
C17   C     0.46657172974502 0.23285380979570 0.25824312009020 
C18   C     0.28116300977760 0.25218431977749 0.36818656027854 
