data_stdin
_audit_creation_method 'critic2'
_audit_creation_date 2023-8-11
_chemical_formula_sum 'C18 H12'
_cell_formula_units_Z 8
_cell_length_a        40.3845529845
_cell_length_b         8.2105655374
_cell_length_c         7.2413328361
_cell_angle_alpha        89.9994
_cell_angle_beta        88.0482
_cell_angle_gamma        89.9979
_cell_volume          2399.688289
_space_group_crystal_system monoclinic
_space_group_IT_number 15
_space_group_name_H-M_alt 'C2/c'
_space_group_name_Hall '-C 2yc'
loop_
_symmetry_equiv_pos_site_id
_symmetry_equiv_pos_as_xyz
 1 'x,y,z'
 2 '-x,-y,-z'
 3 '-x,y,-1/2-z'
 4 'x,-y,-1/2+z'
 5 '-1/2+x,-1/2+y,z'
 6 '-1/2-x,-1/2-y,-z'
 7 '-1/2-x,-1/2+y,-1/2-z'
 8 '-1/2+x,-1/2-y,-1/2+z'
loop_
_atom_site_label
_atom_site_type_symbol
_atom_site_fract_x
_atom_site_fract_y
_atom_site_fract_z
H1    H     0.12870663987617 0.55252762950769 0.64269727055418 
H2    H     0.17682418990463 0.39110061022997 0.54098594050609 
H3    H     0.23390396012328 0.50022706056985 0.56896899942266 
H4    H     0.24160791990090 0.78546934959835 0.67672704021921 
H5    H     0.21868519989650 0.04978771049879 0.75796091042675 
H6    H     0.10969326999792 0.55400044956369 0.89686289950301 
H7    H     0.17003762007829 0.22968385023648 0.80431472996982 
H8    H     0.11157683993986 0.27300779002101 0.81748863955501 
H9    H     0.05395165004308 0.16926900998392 0.84130624023127 
H10   H     0.05381137000196 0.46001807023514 0.97875397040204 
H11   H     0.01610399993586 0.94365700024333 0.89432124064597 
H12   H     0.00554683003869 0.65230418034633 0.96393400007372 
C1    C     0.15330564006825 0.60237843039907 0.65954619044250 
C2    C     0.15665727997999 0.76232936000833 0.73068151050058 
C3    C     0.12884016988563 0.86364430013465 0.78881553067554 
C4    C     0.18044697003406 0.51098320008250 0.60087719025191 
C5    C     0.18939984007194 0.83041870946231 0.72684793047453 
C6    C     0.09598057002024 0.80278342953887 0.83660315062104 
C7    C     0.13408276011002 0.03419044051108 0.79834219944169 
C8    C     0.21269581988867 0.57389909973124 0.61392133930928 
C9    C     0.21692993011848 0.73169680036836 0.67503363936652 
C10   C     0.06883640999086 0.91518470950985 0.85028241940987 
C11   C     0.19370211012275 0.99971767058455 0.76150320977153 
C12   C     0.08925669012074 0.63899918020098 0.88735026040859 
C13   C     0.16685092993431 0.09901329000414 0.78691178961577 
C14   C     0.10659361008890 0.14270132004346 0.81873917973216 
C15   C     0.07490546997007 0.08569883968294 0.83411924962184 
C16   C     0.05758170997554 0.58581741050517 0.93513267050798 
C17   C     0.03647785990410 0.85664320045626 0.89100139936659 
C18   C     0.03063888998031 0.69442283949696 0.93130660047137 
