data_stdin
_audit_creation_method 'critic2'
_audit_creation_date 2023-8-11
_chemical_formula_sum 'C18 H12'
_cell_formula_units_Z 4
_cell_length_a         7.2780562457
_cell_length_b        18.5430107504
_cell_length_c         9.6047092269
_cell_angle_alpha        90.0005
_cell_angle_beta       104.1829
_cell_angle_gamma        89.9975
_cell_volume          1256.712812
_space_group_crystal_system monoclinic
_space_group_IT_number 14
_space_group_name_H-M_alt 'P2_1/c'
_space_group_name_Hall '-P 2ybc'
loop_
_symmetry_equiv_pos_site_id
_symmetry_equiv_pos_as_xyz
 1 'x,y,z'
 2 '-x,-y,-z'
 3 '-x,-1/2+y,-1/2-z'
 4 'x,-1/2-y,-1/2+z'
loop_
_atom_site_label
_atom_site_type_symbol
_atom_site_fract_x
_atom_site_fract_y
_atom_site_fract_z
H1    H     0.68650910006796 0.23316916996582 0.55709757976196 
H2    H     0.54540578049454 0.11873038022455 0.46212597984275 
H3    H     0.58133758941319 0.00916114021491 0.62063227989095 
H4    H     0.79139532925042 0.01541486991483 0.86589667973412 
H5    H     0.01687259975919 0.07985628981195 0.05114291992346 
H6    H     0.54645786982711 0.29931420000953 0.65551265966385 
H7    H     0.19973833980237 0.19079279008892 0.13612176027297 
H8    H     0.26893492957922 0.31576232016211 0.10804903964473 
H9    H     0.18384990981391 0.43428305983206 0.99206671973259 
H10   H     0.43986231971196 0.41987348988189 0.57404610049044 
H11   H     0.95753395014075 0.51013112002547 0.83076339052193 
H12   H     0.64751484938827 0.52734438011255 0.65624869023202 
C1    C     0.70205440962402 0.18709258013705 0.62867017971585 
C2    C     0.81118381969363 0.19379366978250 0.77231263981527 
C3    C     0.89154436055783 0.26113090998092 0.83633595995889 
C4    C     0.62409180949954 0.12183499973392 0.57403718006556 
C5    C     0.85326122973453 0.12863820019434 0.85443445947476 
C6    C     0.82228550040711 0.33190949981177 0.78466033008215 
C7    C     0.04386254944156 0.25747075998521 0.96120272999067 
C8    C     0.64836233005584 0.05993948004100 0.66146919999014 
C9    C     0.76370722988453 0.06346585013957 0.79879019975906 
C10   C     0.93255018011639 0.39431963994012 0.84038268984978 
C11   C     0.99091877966203 0.12936873021711 0.98848339042049 
C12   C     0.64210504946438 0.34430078987420 0.69005415954361 
C13   C     0.09002033950614 0.19077047995610 0.03587081996594 
C14   C     0.14830704033512 0.32082042016527 0.01553046987690 
C15   C     0.10051298062614 0.38643829010498 0.95254794008408 
C16   C     0.58038432048692 0.41296175009143 0.64509705970997 
C17   C     0.86882074983790 0.46383908975199 0.78945622980783 
C18   C     0.69627603051808 0.47339619976949 0.69207059019311 
