data_stdin
_audit_creation_method 'critic2'
_audit_creation_date 2023-8-11
_chemical_formula_sum 'C18 H12'
_cell_formula_units_Z 4
_cell_length_a        10.2448185156
_cell_length_b        14.8984344600
_cell_length_c         8.3757346874
_cell_angle_alpha        90.0000
_cell_angle_beta        75.0321
_cell_angle_gamma        90.0000
_cell_volume          1235.027616
_space_group_crystal_system monoclinic
_space_group_IT_number 14
_space_group_name_H-M_alt 'P2_1/c'
_space_group_name_Hall '-P 2ybc'
loop_
_symmetry_equiv_pos_site_id
_symmetry_equiv_pos_as_xyz
 1 'x,y,z'
 2 '-x,-y,-z'
 3 '-x,-1/2+y,-1/2-z'
 4 'x,-1/2-y,-1/2+z'
loop_
_atom_site_label
_atom_site_type_symbol
_atom_site_fract_x
_atom_site_fract_y
_atom_site_fract_z
H1    H     0.49430514990776 0.76118028996730 0.82341483981746 
H2    H     0.25034870043187 0.74586653983651 0.88889135953106 
H3    H     0.10172325999596 0.83398065997072 0.11911313006623 
H4    H     0.20687015013712 0.92955130001104 0.29635325041382 
H5    H     0.40423631989077 0.97937441973162 0.37776616948518 
H6    H     0.58320329994085 0.84934180976661 0.66503805025005 
H7    H     0.65374173978667 0.98426634012211 0.33067899999066 
H8    H     0.87546175998201 0.95024308992576 0.17050776058102 
H9    H     0.03361335048298 0.90180800972916 0.90838752955109 
H10   H     0.74454816017411 0.81924263983616 0.40177774953387 
H11   H     0.07475799002336 0.85715097017486 0.62459377940391 
H12   H     0.99218377027818 0.81784453028147 0.37869127013249 
C1    C     0.43330196050853 0.80274125972901 0.92096951944456 
C2    C     0.49643877964550 0.86248157013021 0.00991863052431 
C3    C     0.64060049039388 0.88005928987593 0.96826965009886 
C4    C     0.29437475987977 0.79246509012941 0.96050700974105 
C5    C     0.41143459049461 0.90328714968113 0.15517562994528 
C6    C     0.73217741983590 0.86355490992336 0.80717573020460 
C7    C     0.69497016993546 0.91837596970057 0.09250164005064 
C8    C     0.21099282963870 0.84103579982982 0.09207886027793 
C9    C     0.26931433016707 0.89421059998756 0.18970962032172 
C10   C     0.87513131966320 0.87061802976451 0.78856346016240 
C11   C     0.47068505976364 0.94926861005468 0.26813365945529 
C12   C     0.68976881003126 0.84711299997623 0.66121418951803 
C13   C     0.60773719979982 0.95262435993672 0.24129084962271 
C14   C     0.83756410975117 0.92458292997780 0.06917135988284 
C15   C     0.92483068969379 0.89845648031958 0.92445663977622 
C16   C     0.78132567017490 0.83173512986860 0.51052246981742 
C17   C     0.96677974010355 0.85301804972105 0.63365611985692 
C18   C     0.92114596981547 0.83231039976753 0.49678827948627 
