data_stdin
_audit_creation_method 'critic2'
_audit_creation_date 2023-8-11
_chemical_formula_sum 'C18 H12'
_cell_formula_units_Z 2
_cell_length_a         7.5336275107
_cell_length_b         4.7774655083
_cell_length_c        17.1988685075
_cell_angle_alpha       100.9952
_cell_angle_beta        79.1714
_cell_angle_gamma        98.8193
_cell_volume           592.384709
_space_group_crystal_system triclinic
_space_group_IT_number 2
_space_group_name_H-M_alt 'P-1'
_space_group_name_Hall '-P 1'
loop_
_symmetry_equiv_pos_site_id
_symmetry_equiv_pos_as_xyz
 1 'x,y,z'
 2 '-x,-y,-z'
loop_
_atom_site_label
_atom_site_type_symbol
_atom_site_fract_x
_atom_site_fract_y
_atom_site_fract_z
H1    H     0.89410366965558 0.10906555010001 0.29244419000923 
H2    H     0.05824989048813 0.02403634922482 0.39335025005687 
H3    H     0.93500993992300 0.64073075002730 0.47589424989057 
H4    H     0.63671219952967 0.35350166980535 0.45740114022900 
H5    H     0.36861356002188 0.25043022934577 0.39558369000674 
H6    H     0.93809108057755 0.95343752079642 0.18201399971972 
H7    H     0.18047788009605 0.37093537066047 0.30500947021594 
H8    H     0.13796713992580 0.62847181934904 0.20756824973732 
H9    H     0.25214264937624 0.97303258016577 0.11254419017778 
H10   H     0.04759336987461 0.25552113979832 0.07942481971539 
H11   H     0.49756188996001 0.27573725936436 0.04761925022213 
H12   H     0.82739319048987 0.44208835912241 0.01537052013684 
C1    C     0.84168973077544 0.93044349068970 0.32409129976411 
C2    C     0.67684170997826 0.76025487042203 0.30814630986547 
C3    C     0.57695836959832 0.79658707937110 0.24699253023327 
C4    C     0.93239430053963 0.88793721892315 0.38295519998430 
C5    C     0.59991570011582 0.55679638951526 0.36071958986089 
C6    C     0.65052278989497 0.95931826025975 0.18249318982331 
C7    C     0.39331219002817 0.66708993040305 0.25134620019685 
C8    C     0.86176525042108 0.67433487967689 0.43026642980851 
C9    C     0.69657086975513 0.51418763944820 0.41972210973902 
C10   C     0.52829250927159 0.03426023956741 0.13726739022101 
C11   C     0.42221697999304 0.40783646962255 0.35616853981212 
C12   C     0.83915080019086 0.03670385988711 0.15703031978017 
C13   C     0.31995736930651 0.47172565953668 0.30581980997482 
C14   C     0.27869871998587 0.72926845018413 0.20119929026035 
C15   C     0.34139268968119 0.91762295936709 0.14880852998398 
C16   C     0.90155952004635 0.20392545043201 0.09774012018036 
C17   C     0.59478542033358 0.21339630082716 0.07874455014354 
C18   C     0.77836958061559 0.30286923984385 0.06009998979084 
