data_stdin
_audit_creation_method 'critic2'
_audit_creation_date 2023-8-11
_chemical_formula_sum 'C18 H12'
_cell_formula_units_Z 4
_cell_length_a         8.6531858451
_cell_length_b         8.3345738516
_cell_length_c        17.4144882909
_cell_angle_alpha        90.0012
_cell_angle_beta        79.8021
_cell_angle_gamma        90.0002
_cell_volume          1236.102481
_space_group_crystal_system monoclinic
_space_group_IT_number 14
_space_group_name_H-M_alt 'P2_1/c'
_space_group_name_Hall '-P 2ybc'
loop_
_symmetry_equiv_pos_site_id
_symmetry_equiv_pos_as_xyz
 1 'x,y,z'
 2 '-x,-y,-z'
 3 '-x,-1/2+y,-1/2-z'
 4 'x,-1/2-y,-1/2+z'
loop_
_atom_site_label
_atom_site_type_symbol
_atom_site_fract_x
_atom_site_fract_y
_atom_site_fract_z
H1    H     0.71356220052476 0.00538917995344 0.73639922006558 
H2    H     0.53163770962500 0.84568984037352 0.82825789006537 
H3    H     0.36703704066041 0.97182249993498 0.94443727972326 
H4    H     0.39924104024767 0.26287403992246 0.96985328015313 
H5    H     0.53409289010261 0.51579101968366 0.93782152025456 
H6    H     0.65806827995645 0.10946856036305 0.64411804024818 
H7    H     0.74993292000661 0.66937794993129 0.85781046016172 
H8    H     0.95612226012527 0.69296897051046 0.74837641009802 
H9    H     0.10827661039256 0.58967914005232 0.62423452005310 
H10   H     0.78050800028345 0.04393021043938 0.51017018005241 
H11   H     0.13252170062040 0.40423463979870 0.51640038987483 
H12   H     0.02529805961138 0.18127024006481 0.44672709979494 
C1    C     0.63946799048564 0.06592215956055 0.78451292978509 
C2    C     0.65502424049779 0.23387089961690 0.79444731978560 
C3    C     0.76095578021483 0.33466416050018 0.74116522974608 
C4    C     0.53856164021531 0.97437663047187 0.83754578981194 
C5    C     0.57010157027881 0.30281794011358 0.86504168971503 
C6    C     0.82907207020494 0.29021251963600 0.66185142995318 
C7    C     0.80147871953015 0.48700283945941 0.76833579000929 
C8    C     0.44680016950670 0.04547855943328 0.90359540983054 
C9    C     0.46414605041581 0.20711416059292 0.91720979972722 
C10   C     0.95958073000218 0.38068260962325 0.62141526990215 
C11   C     0.60108959005134 0.46439330967137 0.88464949014879 
C12   C     0.76615907950703 0.16987150053186 0.61863146005227 
C13   C     0.71825542026009 0.55021697942770 0.84000781998711 
C14   C     0.92596525996008 0.57875551976398 0.72454477014824 
C15   C     0.00876088972881 0.52286251942619 0.65568697017026 
C16   C     0.83394516004345 0.13367186010837 0.54258776007606 
C17   C     0.03190914032222 0.33512886979836 0.54513064023813 
C18   C     0.97113397939071 0.21293252046426 0.50601843028546 
