data_stdin
_audit_creation_method 'critic2'
_audit_creation_date 2023-8-11
_chemical_formula_sum 'C18 H12'
_cell_formula_units_Z 8
_cell_length_a        15.3217777300
_cell_length_b         8.0999845360
_cell_length_c        19.5209872400
_cell_angle_alpha        90.0015
_cell_angle_beta        90.0000
_cell_angle_gamma        90.0018
_cell_volume          2422.674816
_space_group_crystal_system orthorhombic
_space_group_IT_number 61
_space_group_name_H-M_alt 'Pbca'
_space_group_name_Hall '-P 2ac 2ab'
loop_
_symmetry_equiv_pos_site_id
_symmetry_equiv_pos_as_xyz
 1 'x,y,z'
 2 '-x,-y,-z'
 3 '-1/2+x,-1/2-y,-z'
 4 '-1/2-x,-1/2+y,z'
 5 '-x,-1/2+y,-1/2-z'
 6 'x,-1/2-y,-1/2+z'
 7 '-1/2-x,-y,-1/2+z'
 8 '-1/2+x,y,-1/2-z'
loop_
_atom_site_label
_atom_site_type_symbol
_atom_site_fract_x
_atom_site_fract_y
_atom_site_fract_z
H1    H     0.64122292984622 0.25794436005112 0.33128168007624 
H2    H     0.68226279025034 0.49882722948041 0.39909169012544 
H3    H     0.69619405989465 0.48020726003630 0.52547322016224 
H4    H     0.65851737988179 0.21718833991417 0.58468961016492 
H5    H     0.60541778019426 0.93868122033059 0.58134687015200 
H6    H     0.72872659993254 0.09923643027879 0.29388914974575 
H7    H     0.54027846015640 0.70551357977534 0.51617895004308 
H8    H     0.49551727020780 0.58286251996353 0.41027478993199 
H9    H     0.49644892002094 0.57151091050042 0.28369538995902 
H10   H     0.74857309998137 0.05305289938598 0.17190745019941 
H11   H     0.55522213974820 0.66621620027253 0.17605399984964 
H12   H     0.65909396001158 0.84125748042803 0.10988173996460 
C1    C     0.64946898993843 0.24372848059838 0.38621618976742 
C2    C     0.63350839967882 0.08856950974423 0.41755407020900 
C3    C     0.61042840989792 0.94058167013859 0.37996047015667 
C4    C     0.67136966996632 0.38126047948484 0.42453837989435 
C5    C     0.63391425013846 0.08323311977921 0.49100549982916 
C6    C     0.62567906014218 0.91700764020463 0.30726784004758 
C7    C     0.57020294982229 0.80964336055239 0.41666007974704 
C8    C     0.67787266007115 0.37129515941466 0.49630561985119 
C9    C     0.65837918992737 0.22468537052965 0.52891904006269 
C10   C     0.58137170975220 0.78486498960922 0.27264676985612 
C11   C     0.60457308019991 0.93879606978284 0.52560402979348 
C12   C     0.68742708004630 0.00890290975247 0.26859567993072 
C13   C     0.56975115010099 0.81011176017916 0.48976715988594 
C14   C     0.52916670994938 0.67731864021288 0.38065794977691 
C15   C     0.53034705973451 0.66991266011022 0.31081253993761 
C16   C     0.69962995994641 0.98123273009563 0.19926520983772 
C17   C     0.59239610012603 0.76377799002426 0.20115770000440 
C18   C     0.65003568011892 0.86097328024525 0.16459356976825 
