data_stdin
_audit_creation_method 'critic2'
_audit_creation_date 2023-8-11
_chemical_formula_sum 'C18 H12'
_cell_formula_units_Z 4
_cell_length_a         4.4249810385
_cell_length_b        13.7179901114
_cell_length_c        20.0295594688
_cell_angle_alpha        90.0035
_cell_angle_beta        75.6643
_cell_angle_gamma        90.0154
_cell_volume          1177.972213
_space_group_crystal_system monoclinic
_space_group_IT_number 14
_space_group_name_H-M_alt 'P2_1/c'
_space_group_name_Hall '-P 2ybc'
loop_
_symmetry_equiv_pos_site_id
_symmetry_equiv_pos_as_xyz
 1 'x,y,z'
 2 '-x,-y,-z'
 3 '-x,-1/2+y,-1/2-z'
 4 'x,-1/2-y,-1/2+z'
loop_
_atom_site_label
_atom_site_type_symbol
_atom_site_fract_x
_atom_site_fract_y
_atom_site_fract_z
H1    H     0.41394770071997 0.60117369999355 0.47366713014783 
H2    H     0.12746445991586 0.52703887971497 0.58078276993738 
H3    H     0.64969568995564 0.60731893017949 0.65321244023134 
H4    H     0.47880442919925 0.76618171005865 0.61590282010823 
H5    H     0.54269657018548 0.90011029035612 0.53715894002336 
H6    H     0.36674537048731 0.57160350012131 0.38403486994376 
H7    H     0.86137671906557 0.98748267976819 0.43546570988541 
H8    H     0.29865833980169 0.99882582970082 0.34080262991064 
H9    H     0.76112623887526 0.92642275016605 0.26015350023220 
H10   H     0.77938881959595 0.50019367020052 0.29379472981448 
H11   H     0.06655679983530 0.78558864015389 0.21436246020540 
H12   H     0.15235276932491 0.60638906994607 0.21044021014376 
C1    C     0.19778164981351 0.63499504015169 0.50133062006081 
C2    C     0.09659634990358 0.72259182022196 0.47611682988720 
C3    C     0.25428483937390 0.76880730011601 0.41164289990126 
C4    C     0.03976310910006 0.59406041030708 0.56331254990530 
C5    C     0.83643546090400 0.77141162008494 0.52087671019857 
C6    C     0.48845482881379 0.72224495971030 0.35729478010532 
C7    C     0.17758586942009 0.86727498993557 0.40134473976958 
C8    C     0.77409383944662 0.63969796032521 0.60454332987801 
C9    C     0.67836535958453 0.72793181015503 0.58381631005561 
C10   C     0.67891607891371 0.78135286985726 0.30406672996590 
C11   C     0.74542757991351 0.86566327989716 0.50333228006007 
C12   C     0.52925874878091 0.61990137998766 0.35012665017191 
C13   C     0.91817640955608 0.91319398022346 0.44697143995793 
C14   C     0.36094831021075 0.92272395010402 0.34564485018374 
C15   C     0.61336208926222 0.88266097965898 0.30074247998588 
C16   C     0.76047707893725 0.57923853000750 0.29813104015111 
C17   C     0.92051756084699 0.73827115022521 0.25283146013061 
C18   C     0.96547054022081 0.63869771021361 0.25011699985535 
