data_stdin
_audit_creation_method 'critic2'
_audit_creation_date 2023-8-11
_chemical_formula_sum 'C18 H12'
_cell_formula_units_Z 8
_cell_length_a        27.2614651726
_cell_length_b         9.2175376815
_cell_length_c         9.7136797301
_cell_angle_alpha        89.9997
_cell_angle_beta        84.5391
_cell_angle_gamma        89.9989
_cell_volume          2429.809939
_space_group_crystal_system monoclinic
_space_group_IT_number 15
_space_group_name_H-M_alt 'C2/c'
_space_group_name_Hall '-C 2yc'
loop_
_symmetry_equiv_pos_site_id
_symmetry_equiv_pos_as_xyz
 1 'x,y,z'
 2 '-x,-y,-z'
 3 '-x,y,-1/2-z'
 4 'x,-y,-1/2+z'
 5 '-1/2+x,-1/2+y,z'
 6 '-1/2-x,-1/2-y,-z'
 7 '-1/2-x,-1/2+y,-1/2-z'
 8 '-1/2+x,-1/2-y,-1/2+z'
loop_
_atom_site_label
_atom_site_type_symbol
_atom_site_fract_x
_atom_site_fract_y
_atom_site_fract_z
H1    H     0.28623100993069 0.23594414007026 0.44333728028740 
H2    H     0.23307496016279 0.40989936968756 0.33717866989158 
H3    H     0.26975189994244 0.62181294043092 0.20490025041881 
H4    H     0.35966645988848 0.66769127994701 0.19909276026378 
H5    H     0.43982544002202 0.60723779986655 0.26873197034009 
H6    H     0.31460874003917 0.06731649990186 0.34140204966151 
H7    H     0.49247671984533 0.45033739999984 0.40208157046382 
H8    H     0.50250986015903 0.24845418963942 0.55370869041799 
H9    H     0.47348170011134 0.01341964047924 0.65530332014881 
H10   H     0.29437008985569 0.81823464023927 0.41213036968618 
H11   H     0.41823289004793 0.80837188045179 0.65463153975038 
H12   H     0.34527005995363 0.68625152000771 0.57179690979865 
C1    C     0.30295807008491 0.32599840945800 0.38426200973322 
C2    C     0.35484117998902 0.34296740023647 0.37496296972284 
C3    C     0.38771499992221 0.24092898038660 0.43294761022151 
C4    C     0.27290189986656 0.42448193047630 0.32523635005135 
C5    C     0.37469241994706 0.47383420023924 0.31213174973456 
C6    C     0.37499130008076 0.09214280017560 0.46943640979901 
C7    C     0.43594088006043 0.28942292029210 0.45356155014650 
C8    C     0.29342272982849 0.54567024042268 0.25281376007745 
C9    C     0.34347541006574 0.57067462956958 0.24857677995099 
C10   C     0.40611330004073 0.01180311000559 0.55313787997926 
C11   C     0.42537208992203 0.50828323986551 0.31891873015657 
C12   C     0.33549565985287 0.01573165984014 0.41747773022185 
C13   C     0.45420159988522 0.42203958011895 0.39239254988102 
C14   C     0.46639425001375 0.20576674051542 0.53542734993000 
C15   C     0.45070754006158 0.07534043029963 0.59019813038601 
C16   C     0.32483800002099 0.87349947039553 0.45458050037388 
C17   C     0.39420641989486 0.86657694008411 0.59018060985497 
C18   C     0.35377893995023 0.79838813036635 0.54373627976227 
