data_stdin
_audit_creation_method 'critic2'
_audit_creation_date 2023-8-11
_chemical_formula_sum 'C18 H12'
_cell_formula_units_Z 8
_cell_length_a        15.3007075113
_cell_length_b        41.0812888973
_cell_length_c         3.8023223681
_cell_angle_alpha        90.0320
_cell_angle_beta        89.9722
_cell_angle_gamma        90.0046
_cell_volume          2390.035701
_space_group_crystal_system triclinic
_space_group_IT_number 2
_space_group_name_H-M_alt 'P-1'
_space_group_name_Hall '-P 1'
loop_
_symmetry_equiv_pos_site_id
_symmetry_equiv_pos_as_xyz
 1 'x,y,z'
 2 '-x,-y,-z'
loop_
_atom_site_label
_atom_site_type_symbol
_atom_site_fract_x
_atom_site_fract_y
_atom_site_fract_z
H1    H     0.20589257014880 0.36568210992279 0.70317245097895 
H2    H     0.70597028003696 0.13431852996714 0.29689576900981 
H3    H     0.79408869003937 0.86565891003534 0.79694109102976 
H4    H     0.29405203031764 0.63433962998269 0.20306271092134 
H5    H     0.27612025012581 0.31267826991480 0.63776708106104 
H6    H     0.77621096025255 0.18731969993204 0.36247492079102 
H7    H     0.72385519972626 0.81266181989911 0.86252184892507 
H8    H     0.22383064969853 0.68732948999493 0.13726443920223 
H9    H     0.19451973977928 0.26600844001485 0.36663420063492 
H10   H     0.69456551020913 0.23398500992990 0.63370003080707 
H11   H     0.80545999025953 0.76602639003756 0.13367720901525 
H12   H     0.30550109982070 0.73396295012124 0.86597183080734 
H13   H     0.03813775971728 0.27260458996630 0.21893034042130 
H14   H     0.53813647000670 0.22739014006070 0.78120330090655 
H15   H     0.96184961999229 0.77264751991080 0.28128107894893 
H16   H     0.46193322995806 0.72735107998489 0.71855675088764 
H17   H     0.90432794996472 0.30495595011802 0.22846973082202 
H18   H     0.40430323976232 0.19504434988761 0.77130985089080 
H19   H     0.09565975985610 0.80500262007960 0.27163421902436 
H20   H     0.59575049004907 0.69500995006110 0.72856626938245 
H21   H     0.20626330025557 0.39802009999125 0.30200379015618 
H22   H     0.70620882013191 0.10198049997056 0.69808357949967 
H23   H     0.79372714023673 0.89805003999658 0.19788868946887 
H24   H     0.29380228018874 0.60194962996823 0.80211239994044 
H25   H     0.82734740976758 0.35561983003140 0.39265239121152 
H26   H     0.32734205976698 0.14438606994907 0.60687723127184 
H27   H     0.17264485977900 0.85564940990946 0.10732787983550 
H28   H     0.67269395979550 0.64437367009177 0.89312982874759 
H29   H     0.82879420983267 0.41045633995581 0.62852754924901 
H30   H     0.32883255021368 0.08954867997412 0.37100907097365 
H31   H     0.17120576021607 0.91045321992442 0.87126638996998 
H32   H     0.67118747977073 0.58956843004615 0.12916883869191 
H33   H     0.90819913994995 0.46093029005944 0.78227472949283 
H34   H     0.40825629004172 0.03907074000347 0.21747604918420 
H35   H     0.09181323029663 0.96090792002438 0.71746824104727 
H36   H     0.59175440023218 0.53910378003534 0.28271447103539 
H37   H     0.27802771987305 0.45078967996000 0.35003465921749 
H38   H     0.77795782994465 0.04920904993612 0.65021720987281 
H39   H     0.72197777985378 0.95080998002006 0.14967020887510 
H40   H     0.22204602025337 0.54918269996950 0.85007626939441 
H41   H     0.04219108018480 0.49278155006882 0.76665592912794 
H42   H     0.54222438031117 0.00721609996482 0.23335609082431 
H43   H     0.95783875026515 0.99275868996949 0.73308914941795 
H44   H     0.45779063984987 0.50724105995928 0.26678935050321 
H45   H     0.19830902016454 0.49859581994386 0.60238827091706 
H46   H     0.69828872013578 0.00140067009550 0.39785853062439 
H47   H     0.80171735993383 0.99858977009475 0.89728133954468 
H48   H     0.30172075024539 0.50140079004487 0.10233822975345 
C1    C     0.16983110980287 0.34601334990440 0.57947114048463 
C2    C     0.66988633976205 0.15398595996949 0.42060531951227 
C3    C     0.83015267022554 0.84600755989067 0.92067501960031 
C4    C     0.33014761974057 0.65399055002204 0.07929567098798 
C5    C     0.08201978028699 0.35130826002071 0.47561573017058 
C6    C     0.58204298973940 0.14869104004385 0.52436463921141 
C7    C     0.91796955996597 0.85131840993636 0.02445512872537 
C8    C     0.41799283031171 0.64868385993354 0.97559754975161 
C9    C     0.03839052988845 0.38243964991837 0.50583615905075 
C10   C     0.53840510997956 0.11756062007545 0.49405079878941 
C11   C     0.96160455028952 0.88244768988079 0.99413086111943 
C12   C     0.46162193988084 0.61755805001311 0.00601018114364 
C13   C     0.20925657013282 0.31589578008171 0.54605637113511 
C14   C     0.70932009970589 0.18410209991137 0.45412408992293 
C15   C     0.79072388001727 0.81589223010067 0.95417808924989 
C16   C     0.29072454025363 0.68410190011282 0.04566733007169 
C17   C     0.03290743973090 0.32345389998564 0.36369782919916 
C18   C     0.53291417030852 0.17654425001086 0.63628056877739 
C19   C     0.96708039021093 0.82347916002001 0.13640305893009 
C20   C     0.46713239007921 0.67652420991881 0.86362681922470 
C21   C     0.08333311982501 0.41334830994413 0.53151802013119 
C22   C     0.58333857005008 0.08665116005446 0.46845174009433 
C23   C     0.91666880984486 0.91335202011683 0.96836905066228 
C24   C     0.41668106984788 0.58665016995505 0.03167812049379 
C25   C     0.94572219974739 0.38270752011804 0.50815038121501 
C26   C     0.44573768009902 0.11729510005148 0.49158319127418 
C27   C     0.05427316000994 0.88271795011604 0.99178503966363 
C28   C     0.55428956010945 0.61729529008154 0.00849061069545 
C29   C     0.16288240989490 0.28951009995967 0.40163721960841 
C30   C     0.66292283026956 0.21048519006827 0.59858804926316 
C31   C     0.83709919999794 0.78952529993078 0.09861212004115 
C32   C     0.33713443012316 0.71046803010133 0.90116258947541 
C33   C     0.07570896969462 0.29323302994772 0.31739127107541 
C34   C     0.57572254024872 0.20676276009867 0.68273073925591 
C35   C     0.92427678992679 0.79326191008192 0.18279285964496 
C36   C     0.42433625029545 0.70673626007577 0.81707660993475 
C37   C     0.03556517011126 0.44158338001767 0.64180195912598 
C38   C     0.53558876029571 0.05841563008286 0.35813997941020 
C39   C     0.96444458994481 0.94157538992508 0.85803150070807 
C40   C     0.46442713024117 0.55842794991191 0.14199661010579 
C41   C     0.94070513014045 0.32616961988649 0.31916923912704 
C42   C     0.44069569008100 0.17383071997157 0.68063934927925 
C43   C     0.05928426022321 0.82620330011116 0.18089182883124 
C44   C     0.55935070022974 0.67380740994446 0.81929382090759 
C45   C     0.17101016982240 0.41807502999701 0.42228472964939 
C46   C     0.67098045023441 0.08192454998612 0.57779308064797 
C47   C     0.82899025982230 0.91808993008003 0.07755732894803 
C48   C     0.32903357987103 0.58190871991380 0.92240033937734 
C49   C     0.89837372023225 0.35427193997893 0.40742243997700 
C50   C     0.39837449988224 0.14573127988763 0.59224973927223 
C51   C     0.10161817972517 0.85429672996957 0.09256977916159 
C52   C     0.60166213007149 0.64571987005954 0.90775954995497 
C53   C     0.89982027019222 0.41143118998051 0.61017631062576 
C54   C     0.39985175993117 0.08857188006265 0.38949048961310 
C55   C     0.10018097980776 0.91142992006154 0.88966830112800 
C56   C     0.60016880031205 0.58858601999280 0.11065020128353 
C57   C     0.94344214000519 0.43939888006911 0.69323031971551 
C58   C     0.44348373019501 0.06060207009930 0.30655376984330 
C59   C     0.05656606003670 0.93938690008944 0.80658037102462 
C60   C     0.55653182028455 0.56062339993394 0.19359652944806 
C61   C     0.21126175016198 0.44811935010757 0.44507114107875 
C62   C     0.71122184972301 0.05187929009762 0.55510024015040 
C63   C     0.78874708019920 0.94813065991334 0.05468191955912 
C64   C     0.28878803988701 0.55186417000630 0.94513435005281 
C65   C     0.07927071990082 0.47176533009588 0.67599985001489 
C66   C     0.57928697986864 0.02823234004003 0.32404939124436 
C67   C     0.92074995990803 0.97175273998707 0.82377343921832 
C68   C     0.42072714010850 0.52824582993831 0.17610101937861 
C69   C     0.16596019014686 0.47507878007424 0.58246283885880 
C70   C     0.66594586001808 0.02491839007343 0.41770943873150 
C71   C     0.83405893020322 0.97507556988553 0.91726639108087 
C72   C     0.33406518990702 0.52491831997997 0.08248143964539 
