data_stdin
_audit_creation_method 'critic2'
_audit_creation_date 2023-8-11
_chemical_formula_sum 'C18 H12'
_cell_formula_units_Z 4
_cell_length_a         4.7400307209
_cell_length_b        25.9461308500
_cell_length_c         9.8940131015
_cell_angle_alpha        90.0020
_cell_angle_beta        83.1159
_cell_angle_gamma        90.0031
_cell_volume          1208.047306
_space_group_crystal_system monoclinic
_space_group_IT_number 14
_space_group_name_H-M_alt 'P2_1/c'
_space_group_name_Hall '-P 2ybc'
loop_
_symmetry_equiv_pos_site_id
_symmetry_equiv_pos_as_xyz
 1 'x,y,z'
 2 '-x,-y,-z'
 3 '-x,-1/2+y,-1/2-z'
 4 'x,-1/2-y,-1/2+z'
loop_
_atom_site_label
_atom_site_type_symbol
_atom_site_fract_x
_atom_site_fract_y
_atom_site_fract_z
H1    H     0.79162519053526 0.09291712002352 0.46052437975180 
H2    H     0.03901462032487 0.11797489992953 0.24057562975834 
H3    H     0.45492645939105 0.17797230004299 0.22668357987667 
H4    H     0.59805795024017 0.21541812006468 0.43898088979917 
H5    H     0.51709915017465 0.22840320994871 0.68266329984165 
H6    H     0.88337461108363 0.03263163010721 0.56410545977980 
H7    H     0.21775268967423 0.21490159006245 0.90241399010176 
H8    H     0.83984874032878 0.17290236004286 0.03910944008549 
H9    H     0.45336669101224 0.10740890012334 0.07074663965182 
H10   H     0.54191998988178 0.96293541986673 0.60994404994522 
H11   H     0.20816894944055 0.03489671998059 0.98692976977984 
H12   H     0.17899028926285 0.96555810982236 0.81618935994220 
C1    C     0.97770913027869 0.11728999004462 0.45835349950771 
C2    C     0.06135768948587 0.13582352005114 0.58238121956507 
C3    C     0.91998537923187 0.12190350002726 0.71562055034124 
C4    C     0.11524906920455 0.13225875999146 0.33320713995639 
C5    C     0.28216458031031 0.17404343997598 0.57240418981579 
C6    C     0.73079030074364 0.07817509001331 0.74158699986193 
C7    C     0.96670212945537 0.15368077992616 0.82763989048511 
C8    C     0.34573757078182 0.16666072002807 0.32524793017429 
C9    C     0.42532304092617 0.18748506014171 0.44347555003894 
C10   C     0.55083095056753 0.07530669993948 0.86856239020474 
C11   C     0.34446431075133 0.20043475983525 0.69160812955193 
C12   C     0.72542179913640 0.03543284012697 0.65267845958493 
C13   C     0.18214590041733 0.19233851992799 0.81322684975854 
C14   C     0.79909024982435 0.14724366981255 0.95627885958232 
C15   C     0.58821953029316 0.11113113984420 0.97411870032473 
C16   C     0.53378687076618 0.99545947995410 0.67974213972400 
C17   C     0.34852235080287 0.03521115995035 0.89138719990373 
C18   C     0.33500564928378 0.99628244008098 0.79735969971262 
