data_stdin
_audit_creation_method 'critic2'
_audit_creation_date 2023-8-11
_chemical_formula_sum 'C18 H12'
_cell_formula_units_Z 4
_cell_length_a        14.2292289863
_cell_length_b         5.5682974329
_cell_length_c        17.2886273924
_cell_angle_alpha        89.9998
_cell_angle_beta        59.8688
_cell_angle_gamma        89.9982
_cell_volume          1184.730013
_space_group_crystal_system monoclinic
_space_group_IT_number 14
_space_group_name_H-M_alt 'P2_1/c'
_space_group_name_Hall '-P 2ybc'
loop_
_symmetry_equiv_pos_site_id
_symmetry_equiv_pos_as_xyz
 1 'x,y,z'
 2 '-x,-y,-z'
 3 '-x,-1/2+y,-1/2-z'
 4 'x,-1/2-y,-1/2+z'
loop_
_atom_site_label
_atom_site_type_symbol
_atom_site_fract_x
_atom_site_fract_y
_atom_site_fract_z
H1    H     0.27517585017413 0.95583424910610 0.59468213007131 
H2    H     0.21169876036380 0.25433367088986 0.52724838995051 
H3    H     0.09619678008968 0.60034483011644 0.61823748978890 
H4    H     0.03798146998038 0.62512703971473 0.77856299024230 
H5    H     0.02833024042472 0.45694647933000 0.91110655969482 
H6    H     0.41561073001643 0.99998054053435 0.59100411020310 
H7    H     0.07448665987908 0.13285146036905 0.98483601998206 
H8    H     0.17068075028949 0.77429875956942 0.97858423994376 
H9    H     0.30663678984000 0.45751586996869 0.89284821025203 
H10   H     0.56334569005009 0.70937030049382 0.51171402993933 
H11   H     0.44957068006286 0.30178611034073 0.75344948989885 
H12   H     0.57796086980071 0.34991692035355 0.59071321985582 
C1    C     0.22923498995372 0.10962275981185 0.63418082033324 
C2    C     0.20454455003388 0.12927762999720 0.72432871011953 
C3    C     0.24538249999464 0.96601628930769 0.76594444007853 
C4    C     0.19144189003286 0.27564022089136 0.59657641967781 
C5    C     0.12881449990755 0.31296056036250 0.77761897994686 
C6    C     0.33776845997409 0.80800599926292 0.71710958015460 
C7    C     0.19125415973725 0.96041449050229 0.86092286032745 
C8    C     0.12577333002774 0.46900495047561 0.64755728018758 
C9    C     0.09339304020526 0.48381668927147 0.73723544006368 
C10   C     0.35521821031562 0.61651769083385 0.76397711991903 
C11   C     0.08526418003142 0.31507232934730 0.87196931979228 
C12   C     0.41793684967890 0.84021372981525 0.62590117011942 
C13   C     0.11177151004222 0.13816335970940 0.91231532990322 
C14   C     0.21588392014735 0.77714713937962 0.90574871972613 
C15   C     0.29108560999861 0.60371922971856 0.85888838978991 
C16   C     0.50273083999148 0.67957592952148 0.58160594978133 
C17   C     0.44027454003356 0.44969597969129 0.71662660976078 
C18   C     0.51206179008313 0.47750862985805 0.62626233976066 
