data_stdin
_audit_creation_method 'critic2'
_audit_creation_date 2023-8-11
_chemical_formula_sum 'C18 H12'
_cell_formula_units_Z 4
_cell_length_a         3.8663093047
_cell_length_b        14.9923450267
_cell_length_c        20.1724137837
_cell_angle_alpha        90.0023
_cell_angle_beta        88.5510
_cell_angle_gamma        90.0047
_cell_volume          1168.920901
_space_group_crystal_system monoclinic
_space_group_IT_number 14
_space_group_name_H-M_alt 'P2_1/c'
_space_group_name_Hall '-P 2ybc'
loop_
_symmetry_equiv_pos_site_id
_symmetry_equiv_pos_as_xyz
 1 'x,y,z'
 2 '-x,-y,-z'
 3 '-x,-1/2+y,-1/2-z'
 4 'x,-1/2-y,-1/2+z'
loop_
_atom_site_label
_atom_site_type_symbol
_atom_site_fract_x
_atom_site_fract_y
_atom_site_fract_z
H1    H     0.01348220997828 0.42242726998697 0.54038964001365 
H2    H     0.18239504977448 0.56549911031531 0.58738071017338 
H3    H     0.44509259062418 0.57309891971349 0.69878194004484 
H4    H     0.51397782085593 0.43393763017242 0.76417481015384 
H5    H     0.42147191119677 0.27570816013885 0.77858962024171 
H6    H     0.33102922011377 0.35044247027206 0.48474460999374 
H7    H     0.15360054975459 0.13478289980109 0.74003185988128 
H8    H     0.88163844024475 0.04837730978574 0.65765246010358 
H9    H     0.70804148090204 0.02483807997326 0.54156584015734 
H10   H     0.22742324097568 0.31542339983809 0.36921579984739 
H11   H     0.72104750052167 0.07135114986185 0.42710844020511 
H12   H     0.90647020957404 0.17732870983459 0.33850451005788 
C1    C     0.14326434067912 0.42300060994197 0.58744823010705 
C2    C     0.19497939915374 0.34164408002060 0.62163344998097 
C3    C     0.10556081113290 0.25482280009638 0.59535905013819 
C4    C     0.23208153972764 0.50430525009578 0.61456564004637 
C5    C     0.31805910990276 0.34774954990052 0.68800636990561 
C6    C     0.05584884903349 0.23610410018293 0.52576540988962 
C7    C     0.06627158986976 0.18315387018419 0.64090655000675 
C8    C     0.37610800894251 0.50879331997298 0.67782025997315 
C9    C     0.41477490036953 0.43149922029384 0.71407355019054 
C10   C     0.90199978987461 0.15292896990654 0.50722838016128 
C11   C     0.31969447033876 0.27026883006626 0.72893492990292 
C12   C     0.17705433060163 0.29212391012304 0.47348631000291 
C13   C     0.17787827887675 0.19248776981424 0.70737059980927 
C14   C     0.92029222913885 0.10054284967693 0.62052534996536 
C15   C     0.82612637057970 0.08732301973297 0.55655254983485 
C16   C     0.12478581098565 0.27119203006416 0.40773015005068 
C17   C     0.84424476035315 0.13421103008226 0.43967182005693 
C18   C     0.94893171120989 0.19276180013439 0.39040462986480 
