data_stdin
_audit_creation_method 'critic2'
_audit_creation_date 2023-8-11
_chemical_formula_sum 'C18 H12'
_cell_formula_units_Z 4
_cell_length_a         8.0195100408
_cell_length_b        17.9493683800
_cell_length_c         8.1289668802
_cell_angle_alpha        90.0004
_cell_angle_beta        90.0000
_cell_angle_gamma        89.9969
_cell_volume          1170.125273
_space_group_crystal_system orthorhombic
_space_group_IT_number 18
_space_group_name_H-M_alt 'P2_12_12'
_space_group_name_Hall 'P 2 2ab'
loop_
_symmetry_equiv_pos_site_id
_symmetry_equiv_pos_as_xyz
 1 'x,y,z'
 2 '-x,-y,z'
 3 '-1/2+x,-1/2-y,-z'
 4 '-1/2-x,-1/2+y,-z'
loop_
_atom_site_label
_atom_site_type_symbol
_atom_site_fract_x
_atom_site_fract_y
_atom_site_fract_z
H1    H     0.13730376136379 0.96646898458582 0.61518059869483 
H2    H     0.26405904794622 0.08052661856355 0.50612016596338 
H3    H     0.42331609998234 0.16587167804143 0.69263315136018 
H4    H     0.43650208446534 0.13802308965098 0.99019285699972 
H5    H     0.36190676656730 0.06342399894921 0.22403594869666 
H6    H     0.25720084965423 0.86885247330588 0.62919958904721 
H7    H     0.19281585477441 0.96080149724674 0.34388487167227 
H8    H     0.00081723677205 0.85900444103813 0.31242975915481 
H9    H     0.86255265601484 0.76336563235365 0.13988049021730 
H10   H     0.16571672677258 0.75837032405010 0.47795433617019 
H11   H     0.84415424709901 0.69733553812098 0.87985012719227 
H12   H     0.94889757438900 0.67346920504112 0.59789405695910 
C1    C     0.21082538011747 0.00136205109228 0.69651627958238 
C2    C     0.22349864938899 0.98182064048787 0.86506637318091 
C3    C     0.14956949598391 0.91539484012829 0.93516072352853 
C4    C     0.28043308325455 0.06628166300731 0.63540179604436 
C5    C     0.30204207389313 0.03457285696871 0.97213345307576 
C6    C     0.09783695894441 0.85093896238564 0.84076949117114 
C7    C     0.12633787911390 0.91292879802976 0.10827349558387 
C8    C     0.36804832984387 0.11486781427999 0.74012949167089 
C9    C     0.37657689958441 0.09928447492214 0.90605324456633 
C10   C     0.98938311385927 0.79723759791562 0.91563620771296 
C11   C     0.29751888338060 0.02352154235999 0.14564428964602 
C12   C     0.16048186776975 0.83381954278169 0.68182945447896 
C13   C     0.20598364887051 0.96667577869815 0.21114028372569 
C14   C     0.02265736720955 0.85703726418240 0.18016164302396 
C15   C     0.94817597729090 0.80362053941849 0.08573059356523 
C16   C     0.10998519270589 0.77084637664298 0.59696591394657 
C17   C     0.93232362631810 0.73558330619071 0.82292179787210 
C18   C     0.99064268852940 0.72239730392161 0.66572950889519 
