data_stdin
_audit_creation_method 'critic2'
_audit_creation_date 2023-8-11
_chemical_formula_sum 'C18 H12'
_cell_formula_units_Z 4
_cell_length_a         4.8614499840
_cell_length_b        13.7415559903
_cell_length_c        18.0174983026
_cell_angle_alpha        90.0001
_cell_angle_beta        82.1985
_cell_angle_gamma        89.9973
_cell_volume          1192.498298
_space_group_crystal_system monoclinic
_space_group_IT_number 14
_space_group_name_H-M_alt 'P2_1/c'
_space_group_name_Hall '-P 2ybc'
loop_
_symmetry_equiv_pos_site_id
_symmetry_equiv_pos_as_xyz
 1 'x,y,z'
 2 '-x,-y,-z'
 3 '-x,-1/2+y,-1/2-z'
 4 'x,-1/2-y,-1/2+z'
loop_
_atom_site_label
_atom_site_type_symbol
_atom_site_fract_x
_atom_site_fract_y
_atom_site_fract_z
H1    H     0.42282708938756 0.79050109991806 0.23454646978647 
H2    H     0.12853286964552 0.78299920011210 0.13520914976283 
H3    H     0.83352669931344 0.63663386027251 0.12134737012215 
H4    H     0.88971697079753 0.49057749021156 0.19952768006502 
H5    H     0.12577944012634 0.40529114998290 0.28849213023850 
H6    H     0.27994501004488 0.83983611983357 0.33232018979530 
H7    H     0.45766580110264 0.40465723006498 0.38201855973415 
H8    H     0.76820360986681 0.48558540976347 0.45218704000326 
H9    H     0.98264405970516 0.63567838988344 0.49464113009339 
H10   H     0.45031530929468 0.98554484975318 0.38897131976356 
H11   H     0.99689913981502 0.81032607968202 0.50198157022418 
H12   H     0.81473438010936 0.97366545998807 0.47275728996072 
C1    C     0.29482898082191 0.72652623991000 0.23061665021421 
C2    C     0.30937467892583 0.64806069010793 0.28120344022542 
C3    C     0.46544721073739 0.65047622002607 0.34434143000985 
C4    C     0.13139420068857 0.72170788005358 0.17350021003794 
C5    C     0.17453710959121 0.55941918004052 0.26474574004173 
C6    C     0.55582499935188 0.73888059030561 0.37788018027122 
C7    C     0.53000607975883 0.56018587004500 0.37635562998513 
C8    C     0.97185114977347 0.63823664971804 0.16401629023053 
C9    C     0.99954595039069 0.55778209013946 0.20814493005101 
C10   C     0.74811274037054 0.73212831009757 0.43149541977758 
C11   C     0.22623681972584 0.47211979989774 0.30319602991076 
C12   C     0.44799044895825 0.83264362007166 0.36577862023011 
C13   C     0.40857075065847 0.47193841988749 0.35456030000043 
C14   C     0.71720116056283 0.55644966013298 0.43080524025251 
C15   C     0.83259540889140 0.63911385968449 0.45498058018253 
C16   C     0.53848944981375 0.91489708967703 0.39947742990682 
C17   C     0.84261984942451 0.81764231008683 0.46378448014001 
C18   C     0.74226120903161 0.90807701969616 0.44764817007219 
