data_stdin
_audit_creation_method 'critic2'
_audit_creation_date 2023-8-11
_chemical_formula_sum 'C18 H12'
_cell_formula_units_Z 4
_cell_length_a         8.1535464481
_cell_length_b        12.4146382301
_cell_length_c        12.7434632393
_cell_angle_alpha        90.0000
_cell_angle_beta        68.9706
_cell_angle_gamma        90.0004
_cell_volume          1204.021383
_space_group_crystal_system monoclinic
_space_group_IT_number 14
_space_group_name_H-M_alt 'P2_1/c'
_space_group_name_Hall '-P 2ybc'
loop_
_symmetry_equiv_pos_site_id
_symmetry_equiv_pos_as_xyz
 1 'x,y,z'
 2 '-x,-y,-z'
 3 '-x,-1/2+y,-1/2-z'
 4 'x,-1/2-y,-1/2+z'
loop_
_atom_site_label
_atom_site_type_symbol
_atom_site_fract_x
_atom_site_fract_y
_atom_site_fract_z
H1    H     0.43690573037092 0.29435781001724 0.65455698980393 
H2    H     0.67617259979811 0.16373373976525 0.58022738963365 
H3    H     0.70816181969875 0.05659780986234 0.40897410019422 
H4    H     0.47275544032831 0.06588507027696 0.32759320959949 
H5    H     0.18612615960401 0.12836523985294 0.33671018980561 
H6    H     0.46877413997058 0.44550377964895 0.58661130030761 
H7    H     0.92334179037145 0.24170256018858 0.42620133970314 
H8    H     0.76698117952638 0.37667139964631 0.55800423002547 
H9    H     0.75556209023366 0.51976813979441 0.69692642002374 
H10   H     0.46879565964858 0.61338839038691 0.68725952002156 
H11   H     0.90815083974763 0.63762123001955 0.78281471982869 
H12   H     0.18643432999203 0.70819426011106 0.79154739002737 
C1    C     0.44892773963525 0.24971366962126 0.57878764006435 
C2    C     0.32173691022490 0.26441195961617 0.52779809040388 
C3    C     0.18184902962393 0.34337251996923 0.56488532018701 
C4    C     0.58334003948794 0.17536298018348 0.53761754035628 
C5    C     0.32654255019249 0.19061082001239 0.44002989015556 
C6    C     0.18658882022936 0.43923034033380 0.62867015974909 
C7    C     0.03316968001735 0.32795019982498 0.53343365007330 
C8    C     0.59952694031907 0.11298130035152 0.44216551038738 
C9    C     0.47037908002444 0.11921241005968 0.39603113034413 
C10   C     0.02811374013250 0.50000654987804 0.67994819982553 
C11   C     0.18206141058892 0.18603151006223 0.40204600964416 
C12   C     0.34417950967886 0.48360896980023 0.63358953021023 
C13   C     0.03707217956813 0.24872101988652 0.45135647023457 
C14   C     0.87942642015039 0.39234824994896 0.58280085999503 
C15   C     0.87367658012715 0.47159020004007 0.65832584039708 
C16   C     0.34451619953453 0.57887581963457 0.68994533015719 
C17   C     0.03050397996197 0.59368409990971 0.74275067037161 
C18   C     0.18601984968440 0.63310802004946 0.74765252971898 
