data_stdin
_audit_creation_method 'critic2'
_audit_creation_date 2023-8-11
_chemical_formula_sum 'C18 H12'
_cell_formula_units_Z 8
_cell_length_a        19.4465279800
_cell_length_b        15.6523261800
_cell_length_c         7.9618373904
_cell_angle_alpha        90.0000
_cell_angle_beta        90.0005
_cell_angle_gamma        90.0000
_cell_volume          2423.451127
_space_group_crystal_system orthorhombic
_space_group_IT_number 61
_space_group_name_H-M_alt 'Pbca'
_space_group_name_Hall '-P 2ac 2ab'
loop_
_symmetry_equiv_pos_site_id
_symmetry_equiv_pos_as_xyz
 1 'x,y,z'
 2 '-x,-y,-z'
 3 '-x,-1/2+y,-1/2-z'
 4 'x,-1/2-y,-1/2+z'
 5 '-1/2-x,-y,-1/2+z'
 6 '-1/2+x,y,-1/2-z'
 7 '-1/2+x,-1/2-y,-z'
 8 '-1/2-x,-1/2+y,z'
loop_
_atom_site_label
_atom_site_type_symbol
_atom_site_fract_x
_atom_site_fract_y
_atom_site_fract_z
H1    H     0.25981948984908 0.21439807973095 0.62123581989549 
H2    H     0.16928964014918 0.21469345023252 0.83338920003189 
H3    H     0.06235417017821 0.12864601973852 0.79158547035005 
H4    H     0.04308002983587 0.05585370025820 0.51807573940604 
H5    H     0.07765869009167 0.02725639027865 0.23018845957920 
H6    H     0.33173833017223 0.12594607021003 0.62575250041200 
H7    H     0.16270920023017 0.04175122008819 0.00071281035230 
H8    H     0.27177725981080 0.08640316987613 0.89740872940570 
H9    H     0.39042263016379 0.14040977000267 0.94341777944565 
H10   H     0.45330373025106 0.15431290006464 0.66842373967645 
H11   H     0.48395412997392 0.17108090006420 0.13447121980158 
H12   H     0.53134230979327 0.18128509983880 0.42220064999853 
C1    C     0.21448503993077 0.17530655001231 0.60071641054506 
C2    C     0.20788200995316 0.12797639008560 0.44938488950724 
C3    C     0.26148458976035 0.12163295024067 0.32331375949487 
C4    C     0.16267936989721 0.17685639003270 0.71983961046688 
C5    C     0.14219130010838 0.08974067022254 0.41620626022501 
C6    C     0.33376770013108 0.13813032999561 0.35447292018970 
C7    C     0.24212321982593 0.09624040992823 0.15864983029563 
C8    C     0.10161817983481 0.13027069008729 0.69436128988386 
C9    C     0.09129122989086 0.08898230995963 0.54327361952197 
C10   C     0.37983289995359 0.14600813005284 0.21450227008724 
C11   C     0.12782838010487 0.05587152009343 0.25380738985220 
C12   C     0.36345239982053 0.13974456969602 0.51713824060780 
C13   C     0.17491701012794 0.06326713020079 0.12732673947866 
C14   C     0.28958686999672 0.10348150981698 0.02264834044073 
C15   C     0.35507661021740 0.13194849023353 0.04829836059643 
C16   C     0.43290688022596 0.15387226015427 0.54112092991794 
C17   C     0.45035521974672 0.16324572012903 0.24281623038344 
C18   C     0.47684019015252 0.16825345984812 0.40348293050577 
