data_stdin
_audit_creation_method 'critic2'
_audit_creation_date 2023-8-11
_chemical_formula_sum 'C18 H12'
_cell_formula_units_Z 4
_cell_length_a         5.4287321191
_cell_length_b        14.7984641068
_cell_length_c        16.8442607914
_cell_angle_alpha        90.0051
_cell_angle_beta        61.8912
_cell_angle_gamma        89.9913
_cell_volume          1193.609742
_space_group_crystal_system monoclinic
_space_group_IT_number 15
_space_group_name_H-M_alt 'C2/c'
_space_group_name_Hall '-C 2yc'
loop_
_symmetry_equiv_pos_site_id
_symmetry_equiv_pos_as_xyz
 1 'x,y,z'
 2 '-1/2-x,-1/2-y,-z'
 3 '-1/2-x,y,-1/2-z'
 4 'x,-1/2-y,-1/2+z'
 5 '-1/2+x,-1/2+y,z'
 6 '-x,-y,-z'
 7 '-x,-1/2+y,-1/2-z'
 8 '-1/2+x,-y,-1/2+z'
loop_
_atom_site_label
_atom_site_type_symbol
_atom_site_fract_x
_atom_site_fract_y
_atom_site_fract_z
H1    H     0.13772167961762 0.43440472970442 0.31527563993699 
H2    H     0.29223906926618 0.50715212995298 0.41428909016476 
H3    H     0.56379084034596 0.42028930019367 0.47454715979292 
H4    H     0.63910393997712 0.25590158025558 0.44329252003733 
H5    H     0.55541853049746 0.11928998968277 0.38346817995459 
H6    H     0.35487423993973 0.03953681023230 0.29692369973829 
C1    C     0.26205495951347 0.39576127983623 0.33812988969919 
C2    C     0.32310096982936 0.30377718022169 0.31237668970151 
C3    C     0.25007237088390 0.25831143013986 0.25000628978809 
C4    C     0.34499731896500 0.43657214015020 0.39563373024713 
C5    C     0.44738251050719 0.25246864977013 0.35661605986820 
C6    C     0.25006644889993 0.16223941972792 0.25000539016036 
C7    C     0.49420589962251 0.38758489004694 0.43073951986601 
C8    C     0.53858440868080 0.29637770006567 0.41270687028529 
C9    C     0.46379393954359 0.15666133984144 0.34821214967277 
C10   C     0.35602854016880 0.11302060992401 0.30020995002316 
