data_stdin
_audit_creation_method 'critic2'
_audit_creation_date 2023-8-11
_chemical_formula_sum 'C18 H12'
_cell_formula_units_Z 4
_cell_length_a        16.6178877500
_cell_length_b        10.0348908808
_cell_length_c         7.2348593400
_cell_angle_alpha        90.0000
_cell_angle_beta        90.0000
_cell_angle_gamma        90.0008
_cell_volume          1206.475667
_space_group_crystal_system orthorhombic
_space_group_IT_number 19
_space_group_name_H-M_alt 'P2_12_12_1'
_space_group_name_Hall 'P 2ac 2ab'
loop_
_symmetry_equiv_pos_site_id
_symmetry_equiv_pos_as_xyz
 1 'x,y,z'
 2 '-1/2+x,-1/2-y,-z'
 3 '-1/2-x,-y,-1/2+z'
 4 '-x,-1/2+y,-1/2-z'
loop_
_atom_site_label
_atom_site_type_symbol
_atom_site_fract_x
_atom_site_fract_y
_atom_site_fract_z
H1    H     0.87529553988893 0.15679230048855 0.62394807033260 
H2    H     0.00668337980938 0.26799369980979 0.61453639998489 
H3    H     0.02936942020703 0.47938408009956 0.78892686973256 
H4    H     0.91377624998814 0.58759057047258 0.94845447973021 
H5    H     0.77159595025234 0.60018224028443 0.01367805030219 
H6    H     0.84964846019592 0.02946651026250 0.83303192001703 
H7    H     0.63448796978281 0.50758367956411 0.98172348976748 
H8    H     0.54487750000225 0.33146547999559 0.89934302950159 
H9    H     0.51894604011314 0.10004023041152 0.79518788958183 
H10   H     0.82176102025339 0.79244639957037 0.78476750050477 
H11   H     0.56920307026025 0.87692535986362 0.73704053965857 
H12   H     0.68172245986937 0.71391301037077 0.72874729014548 
C1    C     0.88451178982847 0.24643983005906 0.70520675048204 
C2    C     0.81900637996059 0.30046128029896 0.80617791941120 
C3    C     0.74095881982436 0.23676527966315 0.82117150964866 
C4    C     0.95828390986365 0.31042015049281 0.69717492931355 
C5    C     0.82988632014981 0.43048375963684 0.88471996014668 
C6    C     0.72690853990702 0.09568421978133 0.79398860993358 
C7    C     0.67434030977216 0.31759405964285 0.87177515026029 
C8    C     0.97069006991626 0.43144719022517 0.79155399956335 
C9    C     0.90682138013144 0.49092032972023 0.88158268062582 
C10   C     0.64575387029737 0.04811920048951 0.77849633012880 
C11   C     0.76230889987791 0.50166308968368 0.95459530935866 
C12   C     0.78878483028785 0.99855337992242 0.79999815036413 
C13   C     0.68669409023810 0.44992614972824 0.93816122968431 
C14   C     0.59443081976959 0.26604326002734 0.86069889002095 
C15   C     0.58025444024112 0.13783624986416 0.80607458032714 
C16   C     0.77276716970126 0.86432522008544 0.77789813029972 
C17   C     0.63128009974786 0.91059012008243 0.75037735964345 
C18   C     0.69359467012315 0.81959752004662 0.74807758985958 
