data_stdin
_audit_creation_method 'critic2'
_audit_creation_date 2023-8-11
_chemical_formula_sum 'C18 H12'
_cell_formula_units_Z 8
_cell_length_a        29.7429616330
_cell_length_b         4.8945187290
_cell_length_c        17.3143797965
_cell_angle_alpha        89.9903
_cell_angle_beta        76.0993
_cell_angle_gamma        90.0107
_cell_volume          2446.765134
_space_group_crystal_system monoclinic
_space_group_IT_number 15
_space_group_name_H-M_alt 'C2/c'
_space_group_name_Hall '-C 2yc'
loop_
_symmetry_equiv_pos_site_id
_symmetry_equiv_pos_as_xyz
 1 'x,y,z'
 2 '-1/2-x,-1/2-y,-z'
 3 '-1/2-x,-1/2+y,-1/2-z'
 4 'x,-y,-1/2+z'
 5 '-1/2+x,-1/2+y,z'
 6 '-x,-y,-z'
 7 '-x,y,-1/2-z'
 8 '-1/2+x,-1/2-y,-1/2+z'
loop_
_atom_site_label
_atom_site_type_symbol
_atom_site_fract_x
_atom_site_fract_y
_atom_site_fract_z
H1    H     0.45171075722311 0.34642615793280 0.83579113663340 
H2    H     0.50583199949970 0.09360127053341 0.89442422327847 
H3    H     0.47849748727004 0.70184439274498 0.98632608614615 
H4    H     0.39487477126641 0.58479094991017 0.02239458824095 
H5    H     0.31656519487724 0.67838965949848 0.01835266262291 
H6    H     0.44122858989150 0.26141141093747 0.73411792732974 
H7    H     0.25917600106300 0.95872889903505 0.96994289283222 
H8    H     0.24006125993723 0.30213422971296 0.88780033774541 
H9    H     0.26207068740296 0.65967869840774 0.78365818980591 
H10   H     0.46059999395487 0.58732377229619 0.62479628016661 
H11   H     0.32060285964141 0.88631658121991 0.68287249416844 
H12   H     0.40102566612643 0.91602349350569 0.59992542524806 
C1    C     0.43920222814510 0.16847129061899 0.87187232075054 
C2    C     0.39177240863387 0.09411486387826 0.88612118977183 
C3    C     0.35852152699313 0.22701922584476 0.84940389656076 
C4    C     0.46971551461676 0.03008317100012 0.90690295203961 
C5    C     0.37588630658377 0.88712381550311 0.94516940261360 
C6    C     0.37072507198389 0.40190201072384 0.77987693393926 
C7    C     0.31068521308536 0.18399752238860 0.88411230536961 
C8    C     0.45430225969054 0.81136697788641 0.95934535380653 
C9    C     0.40785322037810 0.74484646719029 0.97903986685139 
C10   C     0.33552525472357 0.56737923819061 0.75917329181696 
C11   C     0.32759060261961 0.83531171310003 0.97308896625001 
C12   C     0.41527940974106 0.40870253305189 0.72701431809509 
C13   C     0.29618230403605 0.98718828414850 0.94582010783068 
C14   C     0.27628181128187 0.33787934718680 0.85824501458824 
C15   C     0.28829065393143 0.53315067707802 0.80065532067721 
C16   C     0.42589589779461 0.58872002197863 0.66368028565870 
C17   C     0.34758251837455 0.75469105047889 0.69520526925318 
C18   C     0.39227285830642 0.77052391034811 0.64878128110569 
