data_stdin
_audit_creation_method 'critic2'
_audit_creation_date 2023-8-11
_chemical_formula_sum 'C18 H12'
_cell_formula_units_Z 4
_cell_length_a        15.6743534820
_cell_length_b         4.7623434922
_cell_length_c        16.7754394960
_cell_angle_alpha        90.0027
_cell_angle_beta        72.6688
_cell_angle_gamma        90.0040
_cell_volume          1195.377695
_space_group_crystal_system monoclinic
_space_group_IT_number 13
_space_group_name_H-M_alt 'P2/c'
_space_group_name_Hall '-P 2yc'
loop_
_symmetry_equiv_pos_site_id
_symmetry_equiv_pos_as_xyz
 1 'x,y,z'
 2 '-x,-y,-z'
 3 '-x,y,-1/2-z'
 4 'x,-y,-1/2+z'
loop_
_atom_site_label
_atom_site_type_symbol
_atom_site_fract_x
_atom_site_fract_y
_atom_site_fract_z
H1    H     0.13430841971804 0.33367766957154 0.55721814018314 
H2    H     0.13506115967215 0.68452844098044 0.66396786007736 
H3    H     0.27311029980478 0.95692462903824 0.65585490026904 
H4    H     0.41294056009538 0.85076518934404 0.54279084007583 
H5    H     0.49544935975921 0.57037520970502 0.42521275003378 
H6    H     0.09987598969413 0.43738245930415 0.46080007021020 
H7    H     0.50081454976095 0.18037948065139 0.32668579983488 
H8    H     0.42845983033090 0.82593348070174 0.26795261971713 
H9    H     0.29297256001855 0.61531294097439 0.24673228999228 
H10   H     0.97054848001252 0.25765809067467 0.42527538008788 
H11   H     0.13544105981585 0.63740479941892 0.26516033011559 
H12   H     0.98541232009614 0.85355915025885 0.32772691003044 
C1    C     0.19412642975948 0.45785100017900 0.55027538977502 
C2    C     0.27062592996264 0.40807019991656 0.48102775992941 
C3    C     0.27216802005347 0.21913118104186 0.41270985992833 
C4    C     0.19514943013598 0.65052960073149 0.61179857991860 
C5    C     0.35192626004213 0.54306994056473 0.48261069023371 
C6    C     0.19333805016326 0.12336151048281 0.39201071969727 
C7    C     0.35685891035074 0.12551818045450 0.36151263979545 
C8    C     0.27331500996503 0.80209654021845 0.60817032007058 
C9    C     0.35074778996395 0.74400062985103 0.54510913987729 
C10   C     0.20212526008150 0.90270125971754 0.33172218981186 
C11   C     0.43434471971855 0.46485885934762 0.42343153016715 
C12   C     0.10796050998501 0.25055363907982 0.42244939988868 
C13   C     0.43700703023638 0.25158546949437 0.36831112973750 
C14   C     0.36270575013180 0.90550515937901 0.30227850993698 
C15   C     0.28801311981261 0.78891286982587 0.29023796014709 
C16   C     0.03489712991862 0.15438153052947 0.40026791029615 
C17   C     0.12633298993507 0.80740577967972 0.31029965976066 
C18   C     0.04333667030430 0.92794306990000 0.34476310006126 
