data_stdin
_audit_creation_method 'critic2'
_audit_creation_date 2023-8-11
_chemical_formula_sum 'C18 H12'
_cell_formula_units_Z 16
_cell_length_a        10.9004045114
_cell_length_b        10.9006574801
_cell_length_c        40.6736032505
_cell_angle_alpha        90.0001
_cell_angle_beta        90.0007
_cell_angle_gamma        89.9997
_cell_volume          4832.901638
_space_group_crystal_system tetragonal
_space_group_IT_number 88
_space_group_name_H-M_alt 'I4_1/a'
_space_group_name_Hall 'I 4bw -1bw'
loop_
_symmetry_equiv_pos_site_id
_symmetry_equiv_pos_as_xyz
 1 'x,y,z'
 2 '-1/4-y,-3/4+x,-3/4+z'
 3 '-x,-1/2-y,z'
 4 '-3/4+y,-3/4-x,-3/4+z'
 5 '-1/2-x,-1/2-y,-1/2-z'
 6 '-1/4+y,-3/4-x,-3/4-z'
 7 '-1/2+x,y,-1/2-z'
 8 '-3/4-y,-3/4+x,-3/4-z'
 9 '-1/2+x,-1/2+y,-1/2+z'
 10 '-3/4-y,-1/4+x,-1/4+z'
 11 '-1/2-x,-y,-1/2+z'
 12 '-1/4+y,-1/4-x,-1/4+z'
 13 '-x,-y,-z'
 14 '-3/4+y,-1/4-x,-1/4-z'
 15 'x,-1/2+y,-z'
 16 '-1/4-y,-1/4+x,-1/4-z'
loop_
_atom_site_label
_atom_site_type_symbol
_atom_site_fract_x
_atom_site_fract_y
_atom_site_fract_z
H1    H     0.82502590041776 0.22181039984700 0.61906858987731 
H2    H     0.88513597980762 0.14596864025133 0.67312425999759 
H3    H     0.76212430993458 0.19668706032444 0.72278937004140 
H4    H     0.58738600009425 0.34267749979603 0.71790315002518 
H5    H     0.45974309995702 0.48005203966042 0.68510781993254 
H6    H     0.70911402988158 0.13393076971492 0.59030180002705 
H7    H     0.41532432991961 0.58096318027021 0.63224684006685 
H8    H     0.45854523999187 0.61437795981687 0.57522795006751 
H9    H     0.55555967969275 0.54986063959039 0.52272119994226 
H10   H     0.77320616004681 0.05617022043091 0.53694233991660 
H11   H     0.65864236970635 0.39240351962626 0.49076082010912 
H12   H     0.75455890970570 0.18531501043983 0.48666472998590 
C1    C     0.76850432031303 0.24538626987601 0.64011641005137 
C2    C     0.66392196033743 0.32161229028658 0.63591019007481 
C3    C     0.62185309965700 0.36665687015103 0.60431258002380 
C4    C     0.80374223967135 0.20294857964824 0.67072736010559 
C5    C     0.60284893033558 0.36222022040474 0.66522323010266 
C6    C     0.65658081006679 0.31466544963172 0.57287735002149 
C7    C     0.54087277018755 0.46861684984386 0.60400882008666 
C8    C     0.73540414034773 0.23346088972498 0.69893541991583 
C9    C     0.63807296957864 0.31380126031835 0.69614563000115 
C10   C     0.63513576040786 0.38420758994581 0.54344123999653 
C11   C     0.50897777010340 0.45283694973392 0.66300798996008 
C12   C     0.70388233978167 0.19438005957384 0.56916187004710 
C13   C     0.48309975013489 0.50784020024197 0.63365451996467 
C14   C     0.51747129962385 0.53360369017186 0.57414007005410 
C15   C     0.56902340989351 0.49699831963753 0.54516520992935 
C16   C     0.73784540011757 0.14915775040007 0.53874129989036 
C17   C     0.67385497039765 0.33707654961281 0.51271391992880 
C18   C     0.72618415037536 0.22190555975715 0.51037390994193 
