data_stdin
_audit_creation_method 'critic2'
_audit_creation_date 2023-8-11
_chemical_formula_sum 'C18 H12'
_cell_formula_units_Z 4
_cell_length_a        19.7509157372
_cell_length_b         3.9881998788
_cell_length_c        15.5920017829
_cell_angle_alpha        90.0099
_cell_angle_beta        71.5458
_cell_angle_gamma        89.9898
_cell_volume          1165.034078
_space_group_crystal_system triclinic
_space_group_IT_number 1
_space_group_name_H-M_alt 'P1'
_space_group_name_Hall 'P 1'
loop_
_symmetry_equiv_pos_site_id
_symmetry_equiv_pos_as_xyz
 1 'x,y,z'
 2 '-1/2+x,-1/2+y,z'
loop_
_atom_site_label
_atom_site_type_symbol
_atom_site_fract_x
_atom_site_fract_y
_atom_site_fract_z
H1    H     0.99865563994472 0.87209391032187 0.99276694014627 
H2    H     0.99882184995215 0.12817469028775 0.49278607001643 
H3    H     0.89008797026300 0.15710088887626 0.98868384984486 
H4    H     0.89026529024658 0.84296337029998 0.48849340997028 
H5    H     0.80965377980181 0.43510215016490 0.12649301033519 
H6    H     0.80989568988751 0.56431808056970 0.62617254983607 
H7    H     0.83828580015791 0.39807658906972 0.27065256029056 
H8    H     0.83833006992615 0.60164050014667 0.77041843999779 
H9    H     0.91005355979917 0.18385561977790 0.35763832021508 
H10   H     0.90997785011527 0.81655981072864 0.85761016025374 
H11   H     0.08768190992211 0.10934118030936 0.95964629985050 
H12   H     0.08779122984785 0.88896411966662 0.45995092006550 
H13   H     0.01228263987421 0.83687018065986 0.36649887996205 
H14   H     0.01215515020981 0.16380780915708 0.86655626012511 
H15   H     0.11937782022278 0.54074413006491 0.29872778990676 
H16   H     0.11930071008853 0.45971459906202 0.79880071995603 
H17   H     0.21945507021477 0.37290977987440 0.16432145998874 
H18   H     0.21926900993903 0.62815104088143 0.66438382987929 
H19   H     0.19216084997306 0.98010044975235 0.83161046029819 
H20   H     0.19221408002659 0.01835468946744 0.33179067002396 
H21   H     0.27950289021961 0.40058855013920 0.00446625010019 
H22   H     0.27932620997972 0.60047455991531 0.50439409032135 
H23   H     0.28897601002117 0.61134113923218 0.85085380018227 
H24   H     0.28884345996187 0.38851582055942 0.35087649973883 
C1    C     0.96697542015599 0.00801413999231 0.05216526990319 
C2    C     0.96707836030572 0.99216617103773 0.55210544971452 
C3    C     0.98810753021977 0.00577913033512 0.13096296987833 
C4    C     0.98813196023969 0.99435573111753 0.63096166000295 
C5    C     0.05479976993136 0.86463450030035 0.13503842000800 
C6    C     0.05478052999423 0.13543105057203 0.63510264972526 
C7    C     0.90433062013950 0.15954132040962 0.05065153972197 
C8    C     0.90449533024702 0.84047519982772 0.55048242984892 
C9    C     0.93750736007143 0.13417765021097 0.21204456987011 
C10   C     0.93751012014537 0.86595992945978 0.71200405003218 
C11   C     0.11713104990828 0.80245925939353 0.05708665992703 
C12   C     0.11710890006507 0.19744866052482 0.55717113009910 
C13   C     0.05973818975652 0.78897493930275 0.22180499031242 
C14   C     0.05968436981518 0.21125279008619 0.72188684974137 
C15   C     0.85834606007066 0.31276523994226 0.12865497969559 
C16   C     0.85851496973113 0.68705750991849 0.62842630014182 
C17   C     0.87449028006452 0.29392275037609 0.20839269978889 
C18   C     0.87456165007407 0.70604108092293 0.70822688981540 
C19   C     0.17619074016112 0.61944390876402 0.06892055018173 
C20   C     0.17610268992470 0.38103209901371 0.56896638015364 
C21   C     0.94886347991954 0.08258795976702 0.29687746999984 
C22   C     0.94881233982366 0.91770925062486 0.79687338022651 
C23   C     0.12654264976611 0.93423536993407 0.96949716010681 
C24   C     0.12656713013514 0.06488907029286 0.46964501033094 
C25   C     0.00572930027647 0.89787418090963 0.30155464989198 
C26   C     0.00564750971788 0.10251738949756 0.80159506021399 
C27   C     0.11944766986685 0.60891150062082 0.23101047009266 
C28   C     0.11936871012509 0.39150234007790 0.73108020008955 
C29   C     0.17474640984213 0.51712710963688 0.15704218984860 
C30   C     0.17461651020452 0.48359967948604 0.65709389973649 
C31   C     0.18690025981017 0.86782905949555 0.89710575009860 
C32   C     0.18689370011815 0.13128616046153 0.39723103023071 
C33   C     0.23689787000109 0.55086258939149 0.99353551018301 
C34   C     0.23677482994139 0.44962070947147 0.49354750029636 
C35   C     0.24216531029052 0.66789728055407 0.90838426979792 
C36   C     0.24206844995525 0.33198443968291 0.40843960011307 
