data_stdin
_audit_creation_method 'critic2'
_audit_creation_date 2023-8-11
_chemical_formula_sum 'C18 H12'
_cell_formula_units_Z 8
_cell_length_a        29.4033616136
_cell_length_b         3.9673367734
_cell_length_c        21.0951526587
_cell_angle_alpha        90.0008
_cell_angle_beta        70.2159
_cell_angle_gamma        90.0044
_cell_volume          2315.562758
_space_group_crystal_system monoclinic
_space_group_IT_number 15
_space_group_name_H-M_alt 'C2/c'
_space_group_name_Hall '-C 2yc'
loop_
_symmetry_equiv_pos_site_id
_symmetry_equiv_pos_as_xyz
 1 'x,y,z'
 2 '-x,-y,-z'
 3 '-x,y,-1/2-z'
 4 'x,-y,-1/2+z'
 5 '-1/2+x,-1/2+y,z'
 6 '-1/2-x,-1/2-y,-z'
 7 '-1/2-x,-1/2+y,-1/2-z'
 8 '-1/2+x,-1/2-y,-1/2+z'
loop_
_atom_site_label
_atom_site_type_symbol
_atom_site_fract_x
_atom_site_fract_y
_atom_site_fract_z
H1    H     0.06200777994785 0.68417853066946 0.21298413006355 
H2    H     0.00118977986698 0.86627832071984 0.16562522004433 
H3    H     0.00829386009042 0.71313541030310 0.04785410005862 
H4    H     0.08115185997407 0.40075945038386 0.97684209994284 
H5    H     0.15970908013564 0.16399063925522 0.95961618980078 
H6    H     0.05480375991386 0.29293926930425 0.26358432984831 
H7    H     0.22461231984494 0.00135060030316 0.00345959010370 
H8    H     0.25661360011344 0.94975381118105 0.09173458022567 
H9    H     0.24782657993367 0.97018574909490 0.21268075995230 
H10   H     0.04607661990725 0.24346192059160 0.38157803012489 
H11   H     0.19743017993269 0.01800570927314 0.32839560975418 
H12   H     0.11747670005898 0.12349409072827 0.41649529976237 
C1    C     0.06497411013718 0.59821954893214 0.16297142009758 
C2    C     0.10506294004339 0.39707074954979 0.12583380981617 
C3    C     0.14018410003215 0.25767188121399 0.15319881006843 
C4    C     0.03095102997903 0.70824506044300 0.13570452012253 
C5    C     0.11160037016915 0.34530494065604 0.05596946994182 
C6    C     0.13272273994585 0.22291460033492 0.22458977986843 
C7    C     0.18431119016336 0.13374355930651 0.10685359989606 
C8    C     0.03538903984187 0.62726482972338 0.06891437024223 
C9    C     0.07573550991902 0.45366507987673 0.02958183988748 
C10   C     0.17263049987620 0.12457080931550 0.24521749985174 
C11   C     0.15492422014423 0.19468985116788 0.01276988986065 
C12   C     0.08711192014932 0.25286354042432 0.27641345986858 
C13   C     0.19069653986934 0.10464246952229 0.03699871006305 
C14   C     0.22285529991753 0.03221928032773 0.12932898018333 
C15   C     0.21793947996026 0.04073316931703 0.19594769023498 
C16   C     0.08186736014102 0.21819722952247 0.34374004988673 
C17   C     0.16641144011891 0.09354531007408 0.31448832996003 
C18   C     0.12195919980735 0.14591429117846 0.36334538012426 
