data_stdin
_audit_creation_method 'critic2'
_audit_creation_date 2023-8-11
_chemical_formula_sum 'C18 H12'
_cell_formula_units_Z 4
_cell_length_a         3.8642475304
_cell_length_b        29.2516093804
_cell_length_c        10.2762753071
_cell_angle_alpha        90.0104
_cell_angle_beta        89.9999
_cell_angle_gamma        90.0079
_cell_volume          1161.583469
_space_group_crystal_system monoclinic
_space_group_IT_number 4
_space_group_name_H-M_alt 'P2_1'
_space_group_name_Hall 'P 2yb'
loop_
_symmetry_equiv_pos_site_id
_symmetry_equiv_pos_as_xyz
 1 'x,y,z'
 2 '-1/2+x,-1/2-y,-z'
loop_
_atom_site_label
_atom_site_type_symbol
_atom_site_fract_x
_atom_site_fract_y
_atom_site_fract_z
H1    H     0.10901012900077 0.29268260999843 0.94323188994692 
H2    H     0.89109047086649 0.79269724993669 0.55671731020710 
H3    H     0.29436227121975 0.23026825003733 0.80146573005744 
H4    H     0.70594780877541 0.73027701008281 0.69847322997560 
H5    H     0.57339821951781 0.24666034008233 0.58712358032519 
H6    H     0.42696909031524 0.74666578986995 0.91283493978422 
H7    H     0.62982712878007 0.32701189013105 0.51322069971705 
H8    H     0.37036039872019 0.82701380986783 0.98677566029906 
H9    H     0.51392666090346 0.40792900988748 0.54189078005670 
H10   H     0.48604738079191 0.90794402004509 0.95812807971022 
H11   H     0.43152129057665 0.31925419014714 0.07126672967219 
H12   H     0.56847191934532 0.81922764003951 0.42869213955236 
H13   H     0.24257029906119 0.47026146006096 0.66894351043979 
H14   H     0.75724909944963 0.97028480009493 0.83108530963956 
H15   H     0.96933824040893 0.49817879006092 0.86072079023244 
H16   H     0.03036354916402 0.99820625997505 0.63929635017210 
H17   H     0.79104378057824 0.48916788991243 0.09109785972989 
H18   H     0.20874142945327 0.98917864986163 0.40891644003554 
H19   H     0.34489668120589 0.31671878016426 0.30602249011005 
H20   H     0.65510295074770 0.81667835002558 0.19393939957111 
H21   H     0.83668289915881 0.44728990992566 0.29382949961631 
H22   H     0.16328411982509 0.94727558999518 0.20619924996841 
H23   H     0.03278486974739 0.37983482984352 0.42034243047671 
H24   H     0.96721986943198 0.87980009015024 0.07964753001354 
C1    C     0.24172768991502 0.30087891999549 0.85309880008591 
C2    C     0.75838810979086 0.80088756993581 0.64686258987737 
C3    C     0.29194176896738 0.34729193988629 0.81793274015186 
C4    C     0.70807923008822 0.84729898986404 0.68205059009064 
C5    C     0.20060341119805 0.38559257006727 0.90065591953756 
C6    C     0.79932624988556 0.88559703009047 0.59933733014550 
C7    C     0.33857900078409 0.26548916993107 0.77162050039129 
C8    C     0.66165391974917 0.76549684015453 0.72833160962100 
C9    C     0.41798495949307 0.35611947989364 0.68902262010573 
C10   C     0.58205635962611 0.85612971990293 0.81097125013017 
C11   C     0.15574099881305 0.38282080990021 0.04042171980144 
C12   C     0.84419341973736 0.88281356004758 0.45956971960379 
C13   C     0.15882993928586 0.42896593008967 0.84100812998537 
C14   C     0.84102994036573 0.92898023993545 0.65899599004983 
C15   C     0.49124402943123 0.27459124990039 0.65003695009381 
C16   C     0.50901883960749 0.77459854992111 0.84992678972509 
C17   C     0.52501522930684 0.31931694993374 0.60918940969698 
C18   C     0.47514966913244 0.81932503009863 0.89079358959889 
C19   C     0.00343334918507 0.42066986006928 0.10842914954462 
C20   C     0.99648105105629 0.92066405015227 0.39157765956736 
C21   C     0.41415331016134 0.40164388997032 0.63939141951521 
C22   C     0.58581236019671 0.90165973989091 0.86061656026706 
C23   C     0.28177389071412 0.34615572987626 0.11717014046797 
C24   C     0.71819335084791 0.84613512983834 0.38280360036050 
C25   C     0.26829968885241 0.43611765011600 0.71011289043472 
C26   C     0.73157483987682 0.93613663016774 0.78989479955469 
C27   C     0.01043248908812 0.46601587988049 0.91182771954027 
C28   C     0.98936131969469 0.96603375007480 0.58818444952815 
C29   C     0.91815589099727 0.46136833987692 0.03927881956881 
C30   C     0.08167576031091 0.96137707000926 0.46073650020689 
C31   C     0.23839523056697 0.34513768989225 0.25066121966580 
C32   C     0.76158901946160 0.84510770008989 0.24931229968706 
C33   C     0.95694582994938 0.41836928984673 0.24477130032988 
C34   C     0.04301325896505 0.91835271001446 0.25523732974285 
C35   C     0.06721266965939 0.38097332002289 0.31529282040856 
C36   C     0.93276966038032 0.88094550016307 0.18469660009043 
