data_stdin
_audit_creation_method 'critic2'
_audit_creation_date 2023-8-11
_chemical_formula_sum 'C18 H12'
_cell_formula_units_Z 4
_cell_length_a         9.3808971228
_cell_length_b         9.6183852700
_cell_length_c        14.3475616678
_cell_angle_alpha        90.0000
_cell_angle_beta       113.6908
_cell_angle_gamma        90.0000
_cell_volume          1185.470312
_space_group_crystal_system monoclinic
_space_group_IT_number 14
_space_group_name_H-M_alt 'P2_1/c'
_space_group_name_Hall '-P 2ybc'
loop_
_symmetry_equiv_pos_site_id
_symmetry_equiv_pos_as_xyz
 1 'x,y,z'
 2 '-x,-y,-z'
 3 '-x,-1/2+y,-1/2-z'
 4 'x,-1/2-y,-1/2+z'
loop_
_atom_site_label
_atom_site_type_symbol
_atom_site_fract_x
_atom_site_fract_y
_atom_site_fract_z
H1    H     0.12729645034860 0.12279555014479 0.83849917030503 
H2    H     0.88613837028393 0.06958635962434 0.69481280029008 
H3    H     0.73552521032575 0.85407485951903 0.69455629030342 
H4    H     0.84318623993666 0.68896984036571 0.83914093033804 
H5    H     0.04966824038030 0.61339088048901 0.99454953009610 
H6    H     0.14764054024012 0.23415966050839 0.95228110986677 
H7    H     0.31447769962732 0.64813393043345 0.12997431019112 
H8    H     0.54205428984663 0.78199199037172 0.21024857019780 
H9    H     0.69365632054314 0.99997993001606 0.22924878004754 
H10   H     0.28901580962967 0.45414706013702 0.99353912988815 
H11   H     0.70301487989320 0.24216620021940 0.19212408975327 
H12   H     0.57011592989740 0.46063288992441 0.10971504979392 
C1    C     0.06346422007566 0.03083933959676 0.84271661973992 
C2    C     0.12470200939902 0.94269149017190 0.92919589965323 
C3    C     0.26770454975128 0.97059027007274 0.01727759010860 
C4    C     0.92715990982086 0.99959153975882 0.76003636030653 
C5    C     0.04505786963475 0.81352242004236 0.92355219978081 
C6    C     0.34509896020202 0.10453473027678 0.04079464034682 
C7    C     0.33836878998672 0.85830229011381 0.08428515988334 
C8    C     0.84345921953625 0.87788952990054 0.75927343986738 
C9    C     0.90336007001690 0.78600008994502 0.83955326987035 
C10   C     0.50232839958036 0.11197882955410 0.11553105998536 
C11   C     0.11290522000891 0.71028545014059 0.99997395025112 
C12   C     0.27127530978275 0.23250420021090 0.99996259971123 
C13   C     0.25761302015558 0.72991986040563 0.07499331004741 
C14   C     0.49181577024880 0.87132146990897 0.16147673000959 
C15   C     0.57403037008578 0.99175182983434 0.17327312992732 
C16   C     0.35050883932530 0.35761108022609 0.02457958963022 
C17   C     0.58266672034035 0.24045183999358 0.13653035001767 
C18   C     0.50882985016622 0.36177702003467 0.09121463031252 
