data_stdin
_audit_creation_method 'critic2'
_audit_creation_date 2023-8-11
_chemical_formula_sum 'C18 H12'
_cell_formula_units_Z 8
_cell_length_a        24.0913641346
_cell_length_b         4.9876038323
_cell_length_c        20.2569074543
_cell_angle_alpha        90.0033
_cell_angle_beta        84.3728
_cell_angle_gamma        90.0020
_cell_volume          2422.303419
_space_group_crystal_system monoclinic
_space_group_IT_number 15
_space_group_name_H-M_alt 'C2/c'
_space_group_name_Hall '-C 2yc'
loop_
_symmetry_equiv_pos_site_id
_symmetry_equiv_pos_as_xyz
 1 'x,y,z'
 2 '-x,-1/2-y,-1/2-z'
 3 '-1/2-x,y,-1/2-z'
 4 '-1/2+x,-1/2-y,z'
 5 'x,-1/2+y,-1/2+z'
 6 '-x,-y,-z'
 7 '-1/2-x,-1/2+y,-z'
 8 '-1/2+x,-y,-1/2+z'
loop_
_atom_site_label
_atom_site_type_symbol
_atom_site_fract_x
_atom_site_fract_y
_atom_site_fract_z
H1    H     0.03186331981412 0.89006690993343 0.97142588008770 
H2    H     0.96068575000218 0.56062847930825 0.95315593994870 
H3    H     0.96234582992936 0.31856057098066 0.84468394023553 
H4    H     0.03188187984465 0.45428163910287 0.75180572982679 
H5    H     0.10560766983181 0.74457628915101 0.70618093976089 
H6    H     0.10005843988294 0.79582023935689 0.00729219001051 
H7    H     0.17224746990510 0.11741231055189 0.71983936975852 
H8    H     0.21235102003648 0.44203151058604 0.78610225999447 
H9    H     0.22853294015671 0.63356827997721 0.89567412013226 
H10   H     0.12671125019215 0.95448787948969 0.11307259017409 
H11   H     0.21922682986863 0.60207344015690 0.01466635987460 
H12   H     0.18389129986309 0.37290203034439 0.11906380993135 
C1    C     0.03459019005277 0.78521695984458 0.92434845998508 
C2    C     0.07795998003763 0.85034782945272 0.87449226021970 
C3    C     0.12288374996196 0.03580328042424 0.88390992977989 
C4    C     0.99368630988457 0.59985993936844 0.91372958012242 
C5    C     0.07415670011506 0.73640276919006 0.81009406023165 
C6    C     0.13875855995459 0.11982254953805 0.94807621993925 
C7    C     0.15385505994860 0.14084374066972 0.82641527002783 
C8    C     0.99389555017394 0.46869804939993 0.85223173997622 
C9    C     0.03296435988828 0.54132015914413 0.80094501985659 
C10   C     0.17650140999720 0.34106853906280 0.95140100993494 
C11   C     0.11011804986994 0.82998643935134 0.75484024976151 
C12   C     0.12292590014360 0.98247388003502 0.00831923017835 
C13   C     0.14676454998050 0.03399347004051 0.76241908013496 
C14   C     0.19205765998974 0.35664524017922 0.83172481008002 
C15   C     0.20115971004524 0.46207384997210 0.89185542016526 
C16   C     0.13893408010219 0.07028889992800 0.06840411007528 
C17   C     0.19125565988352 0.43105136075037 0.01362655995273 
C18   C     0.17193911009924 0.30159483953305 0.07165418985882 
