data_stdin
_audit_creation_method 'critic2'
_audit_creation_date 2023-8-11
_chemical_formula_sum 'C14 H10'
_cell_formula_units_Z 4
_cell_length_a         4.4483333408
_cell_length_b        12.5650219727
_cell_length_c        16.8012857626
_cell_angle_alpha        89.9982
_cell_angle_beta        75.8547
_cell_angle_gamma        90.0008
_cell_volume           910.607187
_space_group_crystal_system monoclinic
_space_group_IT_number 14
_space_group_name_H-M_alt 'P2_1/c'
_space_group_name_Hall '-P 2ybc'
loop_
_symmetry_equiv_pos_site_id
_symmetry_equiv_pos_as_xyz
 1 'x,y,z'
 2 '-x,-y,-z'
 3 '-x,-1/2+y,-1/2-z'
 4 'x,-1/2-y,-1/2+z'
loop_
_atom_site_label
_atom_site_type_symbol
_atom_site_fract_x
_atom_site_fract_y
_atom_site_fract_z
H1    H     0.60030959910028 0.41124327966412 0.47530738023251 
H2    H     0.33797370918900 0.32843029018964 0.37865281971596 
H3    H     0.79699016078441 0.47652555010622 0.55800571010757 
H4    H     0.05323325929233 0.54948839999235 0.65923361969414 
H5    H     0.13445556930253 0.14318189010637 0.40159105028297 
H6    H     0.20455180966389 0.04127823971346 0.52250088024831 
H7    H     0.38953949101963 0.02793740989879 0.64630929003149 
H8    H     0.64797986961165 0.10670546993108 0.74629828027358 
H9    H     0.91638405907796 0.25407716012670 0.79263942029125 
H10   H     0.12316600019241 0.43834046978362 0.77641763000315 
C1    C     0.51371056072874 0.33032886008154 0.48674656009996 
C2    C     0.55412398923588 0.27484076037275 0.55656171992463 
C3    C     0.70523348100557 0.32135045970613 0.61564464973378 
C4    C     0.36692051998372 0.28370302030629 0.43178906026120 
C5    C     0.44058878883470 0.16836202029720 0.56863966008122 
C6    C     0.82088672101768 0.42657722972938 0.60893430008830 
C7    C     0.73919803074207 0.25906988996585 0.68396142022889 
C8    C     0.25339970097498 0.17894803989044 0.44437378976979 
C9    C     0.29066648918222 0.12246830975681 0.51182587029985 
C10   C     0.96556344105028 0.46821072003251 0.66619265985294 
C11   C     0.47847573999522 0.10901838010399 0.63815824971018 
C12   C     0.62175774952003 0.15267044014530 0.69344514976789 
C13   C     0.89000789995230 0.30304920973380 0.74129018971511 
C14   C     0.00303878048854 0.40585819973214 0.73265071987436 
