data_stdin
_audit_creation_method 'critic2'
_audit_creation_date 2023-8-11
_chemical_formula_sum 'C14 H10'
_cell_formula_units_Z 4
_cell_length_a        20.3188762577
_cell_length_b         5.8694790680
_cell_length_c         8.4768334830
_cell_angle_alpha        89.9997
_cell_angle_beta        82.7957
_cell_angle_gamma        90.0121
_cell_volume          1002.976184
_space_group_crystal_system monoclinic
_space_group_IT_number 13
_space_group_name_H-M_alt 'P2/c'
_space_group_name_Hall '-P 2yc'
loop_
_symmetry_equiv_pos_site_id
_symmetry_equiv_pos_as_xyz
 1 'x,y,z'
 2 '-x,-y,-z'
 3 '-x,y,-1/2-z'
 4 'x,-y,-1/2+z'
loop_
_atom_site_label
_atom_site_type_symbol
_atom_site_fract_x
_atom_site_fract_y
_atom_site_fract_z
H1    H     0.30728033991469 0.64125460959585 0.99513440020495 
H2    H     0.42637296987722 0.61001093001726 0.00343340056776 
H3    H     0.20931381018169 0.65203739001761 0.98541017048201 
H4    H     0.09078739990333 0.64620224982350 0.96783721967136 
H5    H     0.47384712000456 0.27475181949233 0.13190611054508 
H6    H     0.39824200988923 0.97268782987922 0.25650108004062 
H7    H     0.28825395014265 0.81755901069930 0.32444071015850 
H8    H     0.16770278976255 0.83012182933455 0.31256466988188 
H9    H     0.07187570024961 0.00611522021864 0.21980709943559 
H10   H     0.01994653013041 0.32370949937783 0.08473138962693 
C1    C     0.32612333990030 0.49428388072670 0.05324809982015 
C2    C     0.28204263984665 0.32446900084866 0.12136386982665 
C3    C     0.21100098986866 0.33182482049586 0.11378567013780 
C4    C     0.39385049999278 0.47638548040203 0.05724477960979 
C5    C     0.30927570991871 0.13419427006572 0.19607611027453 
C6    C     0.18017399977438 0.50977969016668 0.03810273966743 
C7    C     0.17046180023858 0.14865357063724 0.18118887990675 
C8    C     0.42050252977801 0.28765962054403 0.12981185983471 
C9    C     0.37865439012491 0.11961253017332 0.19885169954771 
C10   C     0.11262964989635 0.50705196079094 0.02830684977247 
C11   C     0.26634385994698 0.95877871036665 0.26639674966909 
C12   C     0.19967582022203 0.96585300072129 0.25967846948689 
C13   C     0.10167139977465 0.14891877916837 0.16884041033751 
C14   C     0.07295697000614 0.32522399966850 0.09330229028362 
