data_stdin
_audit_creation_method 'critic2'
_audit_creation_date 2023-8-11
_chemical_formula_sum 'C14 H10'
_cell_formula_units_Z 4
_cell_length_a         9.6270128546
_cell_length_b         4.9217834109
_cell_length_c        27.2017323171
_cell_angle_alpha        89.9990
_cell_angle_beta       132.1785
_cell_angle_gamma        89.9999
_cell_volume           955.128928
_space_group_crystal_system monoclinic
_space_group_IT_number 14
_space_group_name_H-M_alt 'P2_1/c'
_space_group_name_Hall '-P 2ybc'
loop_
_symmetry_equiv_pos_site_id
_symmetry_equiv_pos_as_xyz
 1 'x,y,z'
 2 '-x,-y,-z'
 3 '-x,-1/2+y,-1/2-z'
 4 'x,-1/2-y,-1/2+z'
loop_
_atom_site_label
_atom_site_type_symbol
_atom_site_fract_x
_atom_site_fract_y
_atom_site_fract_z
H1    H     0.10849023976468 0.07868761015375 0.96127344977081 
H2    H     0.32369454033775 0.93848428997404 0.94705159015039 
H3    H     0.91720070000711 0.18045431992076 0.96593960980858 
H4    H     0.68943576076084 0.33270801909550 0.97341504020378 
H5    H     0.30834312040963 0.15693175053898 0.86058278997366 
H6    H     0.07251444974780 0.51879223979426 0.78866173008703 
H7    H     0.81947648957155 0.81158300979910 0.75613219991743 
H8    H     0.60128608019308 0.96362238917472 0.76870799017281 
H9    H     0.47258658043855 0.92462397080200 0.82005969008331 
H10   H     0.46404165997295 0.70331090094761 0.90051322992800 
C1    C     0.09841719083048 0.17613669030280 0.92313788023744 
C2    C     0.96141559976290 0.37867371942145 0.88248222011748 
C3    C     0.82903916019573 0.46368052024716 0.88858364982619 
C4    C     0.22078195045501 0.09717045918284 0.91539946000230 
C5    C     0.95367504017980 0.50346909944807 0.83325936012292 
C6    C     0.82090855038521 0.34346579034450 0.93377101015674 
C7    C     0.69957911918676 0.67678267055397 0.84697127981323 
C8    C     0.21133520962072 0.21851020032190 0.86636406980514 
C9    C     0.07992099997912 0.41919061025576 0.82618592982345 
C10   C     0.69202987066429 0.42822558005982 0.93794515010855 
C11   C     0.82058194983610 0.71496851971403 0.79240989979943 
C12   C     0.70020238916483 0.80033358940108 0.79948978977912 
C13   C     0.56954949014899 0.76127536030322 0.85227119011291 
C14   C     0.56529868931798 0.63893316078856 0.89699396979463 
