data_stdin
_audit_creation_method 'critic2'
_audit_creation_date 2023-8-11
_chemical_formula_sum 'C14 H10'
_cell_formula_units_Z 2
_cell_length_a        10.2752463506
_cell_length_b         5.1197199305
_cell_length_c         9.8183179538
_cell_angle_alpha        90.0006
_cell_angle_beta        67.2953
_cell_angle_gamma        90.0007
_cell_volume           476.480425
_space_group_crystal_system monoclinic
_space_group_IT_number 4
_space_group_name_H-M_alt 'P2_1'
_space_group_name_Hall 'P 2yb'
loop_
_symmetry_equiv_pos_site_id
_symmetry_equiv_pos_as_xyz
 1 'x,y,z'
 2 '-x,-1/2+y,-z'
loop_
_atom_site_label
_atom_site_type_symbol
_atom_site_fract_x
_atom_site_fract_y
_atom_site_fract_z
H1    H     0.57061945006091 0.88664757051487 0.87542665979545 
H2    H     0.59054746997835 0.76563811920477 0.10627235970159 
H3    H     0.57289782981590 0.97623832999028 0.67361762949556 
H4    H     0.56608876013455 0.11864193952917 0.43923356012748 
H5    H     0.76293621980300 0.98978354089424 0.18928405051730 
H6    H     0.91192057949397 0.34965889097364 0.03675345016009 
H7    H     0.98220112960818 0.63429730011403 0.82359109982919 
H8    H     0.96264477943650 0.77728810065856 0.59295002031635 
H9    H     0.86560602025366 0.72954135919284 0.40617432051847 
H10   H     0.71203672994700 0.49668704088668 0.30207095989230 
C1    C     0.64532191993905 0.99237338986913 0.90882101012620 
C2    C     0.72951054970671 0.19371763071248 0.81909504981283 
C3    C     0.72200774010775 0.27219208917139 0.68002147008436 
C4    C     0.65663243007637 0.92159791992617 0.03989527954867 
C5    C     0.82648685015570 0.32457093983127 0.86816228969921 
C6    C     0.63608432007643 0.14391416067290 0.61783571991506 
C7    C     0.80647320006959 0.48619657997008 0.60021819035946 
C8    C     0.75386865980992 0.04786541920261 0.08658363989398 
C9    C     0.83713026061496 0.24686184071647 0.00172126961620 
C10   C     0.63301742998280 0.22280638902485 0.48412432976137 
C11   C     0.91070359015561 0.53464359093337 0.78293298954841 
C12   C     0.89969577046566 0.61468318989357 0.65550780972764 
C13   C     0.80042300007742 0.56544077007535 0.46468046963107 
C14   C     0.71532403037951 0.43569435092306 0.40696412973782 
