data_stdin
_audit_creation_method 'critic2'
_audit_creation_date 2023-8-11
_chemical_formula_sum 'C14 H10'
_cell_formula_units_Z 2
_cell_length_a        13.9346822264
_cell_length_b         6.3595898216
_cell_length_c         5.3288275336
_cell_angle_alpha        90.0004
_cell_angle_beta        98.5615
_cell_angle_gamma        89.9991
_cell_volume           466.972297
_space_group_crystal_system monoclinic
_space_group_IT_number 4
_space_group_name_H-M_alt 'P2_1'
_space_group_name_Hall 'P 2yb'
loop_
_symmetry_equiv_pos_site_id
_symmetry_equiv_pos_as_xyz
 1 'x,y,z'
 2 '-x,-1/2+y,-z'
loop_
_atom_site_label
_atom_site_type_symbol
_atom_site_fract_x
_atom_site_fract_y
_atom_site_fract_z
H1    H     0.86300878962337 0.02549667043526 0.27499646942357 
H2    H     0.98586650012422 0.02168014054463 0.65166249910023 
H3    H     0.75399929013399 0.02981127021639 0.98369176964786 
H4    H     0.62589167998200 0.01452052037143 0.61560691977051 
H5    H     0.99294657010535 0.72431147953011 0.96309558958933 
H6    H     0.87993155964972 0.42306688037696 0.87263691911084 
H7    H     0.75340464986354 0.24069850005567 0.59753814964993 
H8    H     0.62603358015468 0.23509791041004 0.21967309088931 
H9    H     0.53820056018781 0.40485946039655 0.85021843064131 
H10   H     0.51764206009300 0.70263688021849 0.54238584972963 
C1    C     0.86530570000702 0.89238192931751 0.40368332023983 
C2    C     0.79844270986648 0.72544195933768 0.35050779925221 
C3    C     0.72242955975975 0.72406439954792 0.13193597054960 
C4    C     0.93477125001783 0.89146993003393 0.61896644978006 
C5    C     0.80664512988618 0.55088952944461 0.52111575954026 
C6    C     0.70748228006174 0.89196007935830 0.95689770918168 
C7    C     0.65976424030630 0.54563663038398 0.08962042932144 
C8    C     0.93986904974631 0.72282092994233 0.79129228055177 
C9    C     0.87701041980163 0.55485151974268 0.74112668965251 
C10   C     0.63487474024842 0.88418828058660 0.74933876952016 
C11   C     0.74353196038190 0.37396059982266 0.46801207058383 
C12   C     0.67344195986535 0.37077136964896 0.26030322981057 
C13   C     0.58550259029118 0.54211128995219 0.87741922960380 
C14   C     0.57349237002186 0.70816985022053 0.70828314998374 
