data_stdin
_audit_creation_method 'critic2'
_audit_creation_date 2023-8-11
_chemical_formula_sum 'C14 H10'
_cell_formula_units_Z 2
_cell_length_a         7.9573075373
_cell_length_b         9.5415485543
_cell_length_c         6.3775505658
_cell_angle_alpha       103.2982
_cell_angle_beta        95.2388
_cell_angle_gamma        91.0664
_cell_volume           468.871412
_space_group_crystal_system triclinic
_space_group_IT_number 2
_space_group_name_H-M_alt 'P-1'
_space_group_name_Hall '-P 1'
loop_
_symmetry_equiv_pos_site_id
_symmetry_equiv_pos_as_xyz
 1 'x,y,z'
 2 '-x,-y,-z'
loop_
_atom_site_label
_atom_site_type_symbol
_atom_site_fract_x
_atom_site_fract_y
_atom_site_fract_z
H1    H     0.40747527056017 0.54815130985007 0.11284341926627 
H2    H     0.46137885021196 0.80954925947191 0.22515353951426 
H3    H     0.35848368030249 0.33611843997906 0.02783811987479 
H4    H     0.28256546934527 0.07818665033195 0.92602120945654 
H5    H     0.38482618030622 0.94745345028574 0.58266682996802 
H6    H     0.24902781058284 0.81818487958501 0.82500303049739 
H7    H     0.12847103965689 0.60106991957493 0.89490461025547 
H8    H     0.06182301980995 0.33897058952807 0.78599471991517 
H9    H     0.07084805012379 0.10908196039965 0.53215331037555 
H10   H     0.13910908964272 0.96075624963130 0.17777807947659 
C1    C     0.37313852060744 0.60565236960712 0.26979178066355 
C2    C     0.29589499053615 0.52934710960977 0.40308655028555 
C3    C     0.25764422941841 0.37513127999332 0.33973209038093 
C4    C     0.40376649962287 0.75344279999060 0.33290223080784 
C5    C     0.25023020966504 0.60921592980497 0.60659926988109 
C6    C     0.29602342988603 0.28808303027899 0.14036702024191 
C7    C     0.17432938049857 0.30770354945263 0.48198531955667 
C8    C     0.36013650020849 0.83135722982905 0.53450714010512 
C9    C     0.28500826992038 0.75961396029648 0.66894035979684 
C10   C     0.25321422945535 0.14193864040376 0.08227576040577 
C11   C     0.16554406979117 0.53711968044105 0.74285393968134 
C12   C     0.12876469006275 0.39251324005352 0.68282397921950 
C13   C     0.13428048938191 0.15806538989562 0.42078809002365 
C14   C     0.17216683972432 0.07575902996242 0.22357692971483 
