data_stdin
_audit_creation_method 'critic2'
_audit_creation_date 2023-8-11
_chemical_formula_sum 'C14 H10'
_cell_formula_units_Z 8
_cell_length_a         8.1081590801
_cell_length_b        20.6633061400
_cell_length_c        11.4805781202
_cell_angle_alpha        89.9996
_cell_angle_beta        90.0000
_cell_angle_gamma        89.9997
_cell_volume          1923.471825
_space_group_crystal_system orthorhombic
_space_group_IT_number 61
_space_group_name_H-M_alt 'Pbca'
_space_group_name_Hall '-P 2ac 2ab'
loop_
_symmetry_equiv_pos_site_id
_symmetry_equiv_pos_as_xyz
 1 'x,y,z'
 2 '-x,-y,-z'
 3 '-1/2-x,-y,-1/2+z'
 4 '-1/2+x,y,-1/2-z'
 5 '-1/2+x,-1/2-y,-z'
 6 '-1/2-x,-1/2+y,z'
 7 '-x,-1/2+y,-1/2-z'
 8 'x,-1/2-y,-1/2+z'
loop_
_atom_site_label
_atom_site_type_symbol
_atom_site_fract_x
_atom_site_fract_y
_atom_site_fract_z
H1    H     0.61069701943876 0.74006977014042 0.92726195039694 
H2    H     0.61804776941376 0.85196155008191 0.99367421009257 
H3    H     0.58547611959851 0.64697474013697 0.88762156002459 
H4    H     0.58069142980207 0.53283973980396 0.83197210981988 
H5    H     0.75761718943113 0.88095546978002 0.18155635016038 
H6    H     0.88917284006154 0.79484369010200 0.30022484035935 
H7    H     0.96551683940333 0.68243179022692 0.32959546039458 
H8    H     0.97363020982985 0.56925784007869 0.26332279963860 
H9    H     0.88940838992252 0.48499231002199 0.12434026004016 
H10   H     0.73419357956596 0.45058188003458 0.94808138027875 
C1    C     0.67205316971239 0.75096509987289 0.00906516001388 
C2    C     0.74523296991204 0.70087244013201 0.07506212997597 
C3    C     0.74046530950657 0.63340051006404 0.03956296018351 
C4    C     0.67636301038105 0.81467209991614 0.04653944034311 
C5    C     0.82531760958125 0.71759634006007 0.18169669957606 
C6    C     0.65374213947126 0.61230395013275 0.93987655012082 
C7    C     0.82431040033421 0.58598159984030 0.10830869022022 
C8    C     0.75401927942904 0.83084679998725 0.15226352001825 
C9    C     0.82735778991546 0.78291680011124 0.21869306005817 
C10   C     0.65110115961346 0.54769348006546 0.90812774969054 
C11   C     0.90511351027428 0.66839202010910 0.24892332003924 
C12   C     0.90788870978163 0.60556747981163 0.21249160002427 
C13   C     0.82169295988291 0.52039484021048 0.07277255017963 
C14   C     0.73648783003809 0.50121569003036 0.97425628980072 
