data_stdin
_audit_creation_method 'critic2'
_audit_creation_date 2023-8-11
_chemical_formula_sum 'C14 H10'
_cell_formula_units_Z 2
_cell_length_a         8.5655057945
_cell_length_b         5.9031728200
_cell_length_c         9.4156074345
_cell_angle_alpha        89.9998
_cell_angle_beta        97.3200
_cell_angle_gamma        90.0000
_cell_volume           472.207503
_space_group_crystal_system monoclinic
_space_group_IT_number 4
_space_group_name_H-M_alt 'P2_1'
_space_group_name_Hall 'P 2yb'
loop_
_symmetry_equiv_pos_site_id
_symmetry_equiv_pos_as_xyz
 1 'x,y,z'
 2 '-x,-1/2+y,-z'
loop_
_atom_site_label
_atom_site_type_symbol
_atom_site_fract_x
_atom_site_fract_y
_atom_site_fract_z
H1    H     0.55894266979553 0.98189201927895 0.44877885970425 
H2    H     0.45602235967051 0.99617349052570 0.19541646006409 
H3    H     0.65631723058734 0.97133463933780 0.65446419018473 
H4    H     0.76726695057056 0.93431458046383 0.90541887026645 
H5    H     0.52926720977824 0.69834213052932 0.02662262964783 
H6    H     0.70120359949947 0.37813967036535 0.12069180030841 
H7    H     0.85051019032715 0.17847407986050 0.31775750970943 
H8    H     0.95101181046493 0.14698684934042 0.57422370992181 
H9    H     0.98048104959811 0.29762628072741 0.81412390985168 
H10   H     0.92903355946676 0.59541838930665 0.98935997993539 
C1    C     0.59136800998756 0.84840717996815 0.37876402051902 
C2    C     0.69013693022246 0.66983570009822 0.43522860036300 
C3    C     0.75348512992380 0.65504873013129 0.58570318047213 
C4    C     0.53351652006929 0.85751835996722 0.23456401006882 
C5    C     0.72769728052259 0.49599028960249 0.33936342020515 
C6    C     0.72709868974931 0.82290294965950 0.68717425016450 
C7    C     0.84705929034493 0.46302967974755 0.63405062975020 
C8    C     0.57378015971982 0.68893365923769 0.14006421041921 
C9    C     0.66936266980364 0.51086795074637 0.19221209996073 
C10   C     0.79020293017783 0.80268684980240 0.82968771993194 
C11   C     0.82338995018627 0.30846010021706 0.39282065013725 
C12   C     0.87961901052609 0.29161522058633 0.53453216052622 
C13   C     0.90906692016506 0.44539709985519 0.78017646023644 
C14   C     0.88159084999009 0.61235822065665 0.87698724960043 
