data_stdin
_audit_creation_method 'critic2'
_audit_creation_date 2023-8-11
_chemical_formula_sum 'C14 H10'
_cell_formula_units_Z 8
_cell_length_a         9.4886416814
_cell_length_b        13.8409525002
_cell_length_c        15.3838030100
_cell_angle_alpha        90.0000
_cell_angle_beta        90.0000
_cell_angle_gamma        90.0013
_cell_volume          2020.383137
_space_group_crystal_system orthorhombic
_space_group_IT_number 61
_space_group_name_H-M_alt 'Pbca'
_space_group_name_Hall '-P 2ac 2ab'
loop_
_symmetry_equiv_pos_site_id
_symmetry_equiv_pos_as_xyz
 1 'x,y,z'
 2 '-x,-y,-z'
 3 '-1/2-x,-y,-1/2+z'
 4 '-1/2+x,y,-1/2-z'
 5 '-1/2+x,-1/2-y,-z'
 6 '-1/2-x,-1/2+y,z'
 7 '-x,-1/2+y,-1/2-z'
 8 'x,-1/2-y,-1/2+z'
loop_
_atom_site_label
_atom_site_type_symbol
_atom_site_fract_x
_atom_site_fract_y
_atom_site_fract_z
H1    H     0.07594216029674 0.80184273004166 0.52525342982491 
H2    H     0.03384374019537 0.64456987981781 0.59242999973795 
H3    H     0.10078746965489 0.93039836007582 0.46989086024982 
H4    H     0.14342321984238 0.08282318006896 0.39279737028225 
H5    H     0.87070868953817 0.52575457025012 0.52245008982056 
H6    H     0.74806125050241 0.56884733996772 0.38537067014233 
H7    H     0.69554072984367 0.68402584993210 0.27033890968763 
H8    H     0.74034724990501 0.83926585031838 0.19611421971663 
H9    H     0.86586186982511 0.99233838031461 0.18699090989662 
H10   H     0.03111348015020 0.11337932026162 0.24911239000697 
C1    C     0.00208656018774 0.75257637980211 0.49443334975345 
C2    C     0.93371270021578 0.77938782982727 0.41635730014051 
C3    C     0.95821081017536 0.87146319006393 0.37347217002916 
C4    C     0.97910246951055 0.66322873983414 0.53245841023880 
C5    C     0.83914218028051 0.71177375976225 0.37736795996444 
C6    C     0.04915537978520 0.94271723013564 0.40793167026265 
C7    C     0.88978823041551 0.89106311983712 0.29261323026603 
C8    C     0.88678287997104 0.59655463036028 0.49326611977113 
C9    C     0.81824394998263 0.62048202985660 0.41686817010152 
C10   C     0.07422908012221 0.02855046030590 0.36425149971230 
C11   C     0.76872263995122 0.73627548024629 0.29791826014545 
C12   C     0.79359288960130 0.82195038010970 0.25687116027293 
C13   C     0.91836608038128 0.97872612985037 0.24874482009977 
C14   C     0.00960293037937 0.04637727035193 0.28352668970851 
