data_stdin
_audit_creation_method 'critic2'
_audit_creation_date 2023-8-11
_chemical_formula_sum 'C14 H10'
_cell_formula_units_Z 4
_cell_length_a        13.2112649947
_cell_length_b         4.8660371972
_cell_length_c        19.6028238060
_cell_angle_alpha        90.0063
_cell_angle_beta        48.7903
_cell_angle_gamma        90.0047
_cell_volume           948.049878
_space_group_crystal_system monoclinic
_space_group_IT_number 14
_space_group_name_H-M_alt 'P2_1/c'
_space_group_name_Hall '-P 2ybc'
loop_
_symmetry_equiv_pos_site_id
_symmetry_equiv_pos_as_xyz
 1 'x,y,z'
 2 '-x,-y,-z'
 3 '-x,-1/2+y,-1/2-z'
 4 'x,-1/2-y,-1/2+z'
loop_
_atom_site_label
_atom_site_type_symbol
_atom_site_fract_x
_atom_site_fract_y
_atom_site_fract_z
H1    H     0.92487966024567 0.12713041897807 0.92881855995793 
H2    H     0.91649937012212 0.04877795089881 0.80922808979923 
H3    H     0.92351105978962 0.19035218977338 0.02973384002394 
H4    H     0.93320009026746 0.30998286907064 0.14655576977510 
H5    H     0.75455061023359 0.31242312039598 0.80848197984025 
H6    H     0.60291209022605 0.65498453909030 0.92902693010535 
H7    H     0.51946607999471 0.89867329013545 0.06565413973843 
H8    H     0.52932056003576 0.99933253968576 0.18452554970551 
H9    H     0.62953903047924 0.93028256930911 0.25158379969703 
H10   H     0.78810802020859 0.68342920903101 0.25788224005761 
C1    C     0.85404827016509 0.24471695909997 0.92973671993553 
C2    C     0.76877519959851 0.43876376078852 0.99945323023116 
C3    C     0.77237110016591 0.49389943959287 0.07066397979317 
C4    C     0.84974943986590 0.20036009003547 0.86190897997345 
C5    C     0.67668560023670 0.58856166091220 0.99854218969301 
C6    C     0.85876193937746 0.35287962976054 0.07759718031105 
C7    C     0.68673028002655 0.70214896003304 0.13616801980931 
C8    C     0.75870974994271 0.34859006979988 0.86137803029370 
C9    C     0.67384329020450 0.53935098030021 0.92873260988727 
C10   C     0.86374871982225 0.41879745043600 0.14399975994770 
C11   C     0.58931432983016 0.78816860918627 0.06756647000394 
C12   C     0.59481204990349 0.84409676917840 0.13321056011565 
C13   C     0.69395476976767 0.76712028087053 0.20325765014034 
C14   C     0.78179178993814 0.62911516007225 0.20689967019598 
