data_stdin
_audit_creation_method 'critic2'
_audit_creation_date 2023-8-11
_chemical_formula_sum 'C14 H10'
_cell_formula_units_Z 4
_cell_length_a         8.0998054415
_cell_length_b        19.6333022021
_cell_length_c         6.0230516217
_cell_angle_alpha        90.0022
_cell_angle_beta        90.0002
_cell_angle_gamma        89.9991
_cell_volume           957.821373
_space_group_crystal_system orthorhombic
_space_group_IT_number 33
_space_group_name_H-M_alt 'Pna2_1'
_space_group_name_Hall 'P 2c -2n'
loop_
_symmetry_equiv_pos_site_id
_symmetry_equiv_pos_as_xyz
 1 'x,y,z'
 2 '-x,-y,-1/2+z'
 3 '-1/2-x,-1/2+y,-1/2+z'
 4 '-1/2+x,-1/2-y,z'
loop_
_atom_site_label
_atom_site_type_symbol
_atom_site_fract_x
_atom_site_fract_y
_atom_site_fract_z
H1    H     0.08646368055804 0.07990158022420 0.97989612926912 
H2    H     0.10652626028402 0.20368841013328 0.98126473960629 
H3    H     0.08328010940902 0.97751567999304 0.98215064956782 
H4    H     0.08182238002338 0.85338386000453 0.99540001048418 
H5    H     0.25756708056361 0.26441260990665 0.28580237991338 
H6    H     0.38056072963339 0.19742886018329 0.59475446074087 
H7    H     0.42905289021064 0.09055489999589 0.78134743964026 
H8    H     0.41342143060655 0.96528900992119 0.79305162021443 
H9    H     0.34390845029043 0.85806413017447 0.61938358939400 
H10   H     0.21649634002240 0.79160532993681 0.31146027936772 
C1    C     0.15091454943775 0.10455751006878 0.11619987987225 
C2    C     0.22041642967458 0.06524209010190 0.28908765018331 
C3    C     0.21346022021703 0.99124710001802 0.29399430945093 
C4    C     0.16305746038887 0.17498100975345 0.11598915053016 
C5    C     0.30161508944636 0.10024606985228 0.46616060076589 
C6    C     0.14031751964126 0.95225782017561 0.12303159980070 
C7    C     0.28534948982404 0.95583665016610 0.47742894040942 
C8    C     0.24682003959615 0.20916162002816 0.28784609928526 
C9    C     0.31483539951474 0.17203838021787 0.46025237080744 
C10   C     0.14052976060123 0.88167654014505 0.12947745031278 
C11   C     0.36942038973535 0.06259851022981 0.64772981922333 
C12   C     0.36105893019074 0.99328879976398 0.65390555982432 
C13   C     0.28501341036541 0.88380718000844 0.47991627969332 
C14   C     0.21490185954413 0.84706075007498 0.30808186056467 
