data_stdin
_audit_creation_method 'critic2'
_audit_creation_date 2023-8-11
_chemical_formula_sum 'C14 H10'
_cell_formula_units_Z 4
_cell_length_a         6.0436412843
_cell_length_b         8.1954306001
_cell_length_c        19.4082241703
_cell_angle_alpha        89.9997
_cell_angle_beta        90.0025
_cell_angle_gamma        90.0000
_cell_volume           961.294053
_space_group_crystal_system orthorhombic
_space_group_IT_number 19
_space_group_name_H-M_alt 'P2_12_12_1'
_space_group_name_Hall 'P 2ac 2ab'
loop_
_symmetry_equiv_pos_site_id
_symmetry_equiv_pos_as_xyz
 1 'x,y,z'
 2 '-1/2-x,-y,-1/2+z'
 3 '-1/2+x,-1/2-y,-z'
 4 '-x,-1/2+y,-1/2-z'
loop_
_atom_site_label
_atom_site_type_symbol
_atom_site_fract_x
_atom_site_fract_y
_atom_site_fract_z
H1    H     0.86230417937713 0.95131069056996 0.18825538015944 
H2    H     0.90600333058037 0.96204139959983 0.06332341986318 
H3    H     0.84750220983922 0.95442592974006 0.29201605021127 
H4    H     0.85040723976871 0.96622440000843 0.41756231975704 
H5    H     0.24499108042936 0.84586207948774 0.00706064989695 
H6    H     0.53345190051301 0.71446068994326 0.07942106017317 
H7    H     0.67593499950161 0.63107180052293 0.18958849996479 
H8    H     0.65441887064016 0.63023754955947 0.31665381984454 
H9    H     0.47552016040665 0.71246119951939 0.42184176023668 
H10   H     0.16569508003082 0.84605109968836 0.48449531008260 
C1    C     0.00968990977284 0.89818232957880 0.16534119024846 
C2    C     0.17390956041809 0.82742945998073 0.20777735999484 
C3    C     0.16180444033615 0.82772086977057 0.28257882983518 
C4    C     0.03406428068211 0.90431463988920 0.09435866018703 
C5    C     0.36442317076605 0.75863173992879 0.17524027022570 
C6    C     0.98586809956646 0.90035262958868 0.31950564020936 
C7    C     0.34006032021526 0.75813992014310 0.32105347981747 
C8    C     0.22412182981502 0.83897211058623 0.06270327011144 
C9    C     0.38546968011788 0.76627536031291 0.10279511994216 
C10   C     0.98677784005212 0.90670141970047 0.39087898004719 
C11   C     0.53461989011626 0.68487403043316 0.21589020991600 
C12   C     0.52267038959082 0.68433923011176 0.28602393014335 
C13   C     0.33691580944755 0.76554423993053 0.39381063001071 
C14   C     0.16398160020824 0.83946233012264 0.42846430005748 
