data_stdin
_audit_creation_method 'critic2'
_audit_creation_date 2023-8-11
_chemical_formula_sum 'C14 H10'
_cell_formula_units_Z 4
_cell_length_a        19.8036435117
_cell_length_b         5.4747059906
_cell_length_c         9.2591443474
_cell_angle_alpha        89.9998
_cell_angle_beta        75.1624
_cell_angle_gamma        90.0009
_cell_volume           970.394680
_space_group_crystal_system monoclinic
_space_group_IT_number 5
_space_group_name_H-M_alt 'C2'
_space_group_name_Hall 'C 2y'
loop_
_symmetry_equiv_pos_site_id
_symmetry_equiv_pos_as_xyz
 1 'x,y,z'
 2 '-x,y,-z'
 3 '-1/2+x,-1/2+y,z'
 4 '-1/2-x,-1/2+y,-z'
loop_
_atom_site_label
_atom_site_type_symbol
_atom_site_fract_x
_atom_site_fract_y
_atom_site_fract_z
H1    H     0.16359458001436 0.99356051976834 0.57538120968052 
H2    H     0.04041934009658 0.98475098990812 0.57978564976257 
H3    H     0.26418859000256 0.99359575036720 0.57657885969127 
H4    H     0.38719528005752 0.97686140077908 0.57595167031929 
H5    H     0.96167735001962 0.65882018922676 0.72084377999957 
H6    H     0.01041584983396 0.34217565020646 0.85763405974610 
H7    H     0.10820729020457 0.16200833043618 0.93438143027366 
H8    H     0.23324958979102 0.15724498927081 0.93021777013412 
H9    H     0.34926114986852 0.32917497078330 0.85069137982228 
H10   H     0.43137785014646 0.64760378949999 0.71585591028079 
C1    C     0.13108369013725 0.85003213064490 0.63847662949062 
C2    C     0.16028895991271 0.67225722052908 0.71514713954568 
C3    C     0.23385121004989 0.66987264084715 0.71349887034337 
C4    C     0.06089727993217 0.84542293007331 0.64091539033908 
C5    C     0.11535467998296 0.48659530038065 0.79588566957793 
C6    C     0.28179281996633 0.84710478963888 0.63718950949236 
C7    C     0.25945000977318 0.48017802020772 0.79126300984300 
C8    C     0.01671513020866 0.66224706959534 0.72020531034829 
C9    C     0.04387512977303 0.48582699007784 0.79632731979693 
C10   C     0.35167675998843 0.83883583015269 0.63757458976466 
C11   C     0.14328070030204 0.30246045082208 0.87399538954144 
C12   C     0.21243276011072 0.29880599923956 0.87127420018728 
C13   C     0.33100616001884 0.47526378056411 0.79005595990910 
C14   C     0.37650000992774 0.65234378069326 0.71514290050927 
