data_stdin
_audit_creation_method 'critic2'
_audit_creation_date 2023-8-11
_chemical_formula_sum 'C14 H10'
_cell_formula_units_Z 8
_cell_length_a         6.0111370805
_cell_length_b         8.3655048309
_cell_length_c        38.4211665721
_cell_angle_alpha        89.9992
_cell_angle_beta        90.0007
_cell_angle_gamma        90.0001
_cell_volume          1932.054323
_space_group_crystal_system orthorhombic
_space_group_IT_number 61
_space_group_name_H-M_alt 'Pbca'
_space_group_name_Hall '-P 2ac 2ab'
loop_
_symmetry_equiv_pos_site_id
_symmetry_equiv_pos_as_xyz
 1 'x,y,z'
 2 '-x,-y,-z'
 3 '-1/2-x,-y,-1/2+z'
 4 '-1/2+x,y,-1/2-z'
 5 '-1/2+x,-1/2-y,-z'
 6 '-1/2-x,-1/2+y,z'
 7 '-x,-1/2+y,-1/2-z'
 8 'x,-1/2-y,-1/2+z'
loop_
_atom_site_label
_atom_site_type_symbol
_atom_site_fract_x
_atom_site_fract_y
_atom_site_fract_z
H1    H     0.60646235933771 0.74128522941040 0.10601110005402 
H2    H     0.61019942998756 0.80511063006605 0.04423555009389 
H3    H     0.62065849930498 0.69636252976000 0.15709776988610 
H4    H     0.64792324993574 0.63593355962950 0.21900023006383 
H5    H     0.92067050988907 0.71212601954588 0.00601818005677 
H6    H     0.23423655925307 0.55729832002158 0.03184967004343 
H7    H     0.41483580037739 0.43429161025855 0.08155674009190 
H8    H     0.42637865930682 0.37283123035217 0.14430642993865 
H9    H     0.26355012926942 0.38308889026527 0.20169859988937 
H10   H     0.96524540021599 0.47431201047990 0.24214049987520 
C1    C     0.74518562977905 0.69976513974680 0.09029149012299 
C2    C     0.92036946928970 0.61230354949559 0.10570399008865 
C3    C     0.92778405078371 0.57619664002794 0.14269040993728 
C4    C     0.74593982002483 0.73503318967022 0.05507170003129 
C5    C     0.09950685933206 0.56092436040046 0.08394031987888 
C6    C     0.76212796982467 0.62740381994545 0.16629765003198 
C7    C     0.11309159013134 0.48893750021658 0.15619914987739 
C8    C     0.92204620005604 0.68384135015645 0.03367566994679 
C9    C     0.09628576916915 0.59805795989803 0.04801057011819 
C10   C     0.77697143004608 0.59292699989925 0.20147848000227 
C11   C     0.28059366976475 0.47282329057141 0.09861911998927 
C12   C     0.28717739001356 0.43870268023704 0.13330687991085 
C13   C     0.12282733023206 0.45278900011731 0.19215796994912 
C14   C     0.95697706975193 0.50351079052044 0.21454949002974 
