data_stdin
_audit_creation_method 'critic2'
_audit_creation_date 2023-8-11
_chemical_formula_sum 'C14 H10'
_cell_formula_units_Z 4
_cell_length_a         9.6190442435
_cell_length_b         4.9228558515
_cell_length_c        20.2041632263
_cell_angle_alpha        90.0002
_cell_angle_beta        87.2775
_cell_angle_gamma        89.9994
_cell_volume           955.651293
_space_group_crystal_system monoclinic
_space_group_IT_number 14
_space_group_name_H-M_alt 'P2_1/c'
_space_group_name_Hall '-P 2ybc'
loop_
_symmetry_equiv_pos_site_id
_symmetry_equiv_pos_as_xyz
 1 'x,y,z'
 2 '-x,-y,-z'
 3 '-x,-1/2+y,-1/2-z'
 4 'x,-1/2-y,-1/2+z'
loop_
_atom_site_label
_atom_site_type_symbol
_atom_site_fract_x
_atom_site_fract_y
_atom_site_fract_z
H1    H     0.51457377001899 0.31953345924681 0.03411199979274 
H2    H     0.75740324969956 0.16698508925813 0.02660172998015 
H3    H     0.31390663973598 0.42141546010102 0.03875979009881 
H4    H     0.07014852972455 0.56206764044770 0.05300197981383 
H5    H     0.83725895971106 0.79671853025137 0.09947732992634 
H6    H     0.66803258032968 0.57579853086459 0.17990118986807 
H7    H     0.43646906952380 0.53702542975446 0.23123646976338 
H8    H     0.19297590995114 0.68942984947325 0.24378653013959 
H9    H     0.00482928969166 0.98245535912188 0.21130163990822 
H10   H     0.91268362032223 0.34403148977735 0.13939743004031 
C1    C     0.54661213981436 0.15651404932388 0.06624069983787 
C2    C     0.44818944983185 0.03651689987911 0.11141262990857 
C3    C     0.30354820967914 0.12174470092692 0.11751888018037 
C4    C     0.68392100976613 0.07164854093541 0.06205402994383 
C5    C     0.49455166973371 0.82350734949469 0.15300076978027 
C6    C     0.24775766961567 0.32422318037723 0.07688141014608 
C7    C     0.21292644975625 0.99729060912125 0.16673296020341 
C8    C     0.72889364026478 0.86111577087364 0.10299891011435 
C9    C     0.63528354991655 0.73902381977620 0.14772126004894 
C10   C     0.10986026953968 0.40340579985208 0.08462291995026 
C11   C     0.39902470985473 0.70021288090836 0.20046002987938 
C12   C     0.26442354009241 0.78576383955551 0.20753488982855 
C13   C     0.07247250047914 0.08173668009546 0.17380118003531 
C14   C     0.02131049049902 0.28237501923268 0.13364167987395 
