data_stdin
_audit_creation_method 'critic2'
_audit_creation_date 2023-8-11
_chemical_formula_sum 'C14 H10'
_cell_formula_units_Z 4
_cell_length_a         8.6788487406
_cell_length_b         8.0289960142
_cell_length_c        16.1496973547
_cell_angle_alpha        90.0018
_cell_angle_beta        58.5435
_cell_angle_gamma        90.0006
_cell_volume           959.964700
_space_group_crystal_system monoclinic
_space_group_IT_number 14
_space_group_name_H-M_alt 'P2_1/c'
_space_group_name_Hall '-P 2ybc'
loop_
_symmetry_equiv_pos_site_id
_symmetry_equiv_pos_as_xyz
 1 'x,y,z'
 2 '-x,-y,-z'
 3 '-x,-1/2+y,-1/2-z'
 4 'x,-1/2-y,-1/2+z'
loop_
_atom_site_label
_atom_site_type_symbol
_atom_site_fract_x
_atom_site_fract_y
_atom_site_fract_z
H1    H     0.52415837230357 0.19907753994723 0.06300983145288 
H2    H     0.68485099556641 0.97867808629261 0.94369025951090 
H3    H     0.38740868396108 0.39234452627506 0.14906028125555 
H4    H     0.24817716338442 0.61834594591798 0.26728078401007 
H5    H     0.98880430120198 0.03220876743805 0.79706396148279 
H6    H     0.13247851140396 0.30947770507528 0.77475036306329 
H7    H     0.12821967910897 0.59101450553014 0.82963534771990 
H8    H     0.98186950951009 0.81334007406466 0.95295099251588 
H9    H     0.72778680294089 0.91555439013197 0.10453624868811 
H10   H     0.42049058044091 0.88047544389814 0.24764486333290 
C1    C     0.65602138654155 0.22617129862044 0.99959122472376 
C2    C     0.73261233880363 0.38602247740005 0.98805920265460 
C3    C     0.64232601318035 0.51974518018673 0.05762886631729 
C4    C     0.74656848819416 0.10111623865992 0.93221382882025 
C5    C     0.90842681134306 0.41485566856232 0.90526005751964 
C6    C     0.46465266446897 0.50526849128721 0.13871212187929 
C7    C     0.73629100404535 0.67284850177934 0.04455803810301 
C8    C     0.91856046858598 0.13080696339837 0.84998926273097 
C9    C     0.99781936270419 0.28560502895048 0.83711171445609 
C10   C     0.38539423564132 0.63289951312887 0.20568140384552 
C11   C     0.99422660810130 0.57266268170409 0.89332704405994 
C12   C     0.91312817129052 0.69547440578981 0.96090203990388 
C13   C     0.65336142752874 0.80055282048011 0.11457597261265 
C14   C     0.48095888807733 0.78105047794124 0.19427142304712 
