data_stdin
_audit_creation_method 'critic2'
_audit_creation_date 2023-8-11
_chemical_formula_sum 'C14 H10'
_cell_formula_units_Z 8
_cell_length_a        27.5344506700
_cell_length_b         5.1039855816
_cell_length_c        13.9429798643
_cell_angle_alpha        90.0190
_cell_angle_beta        75.8531
_cell_angle_gamma        90.0682
_cell_volume          1900.055075
_space_group_crystal_system triclinic
_space_group_IT_number 2
_space_group_name_H-M_alt 'P-1'
_space_group_name_Hall '-P 1'
loop_
_symmetry_equiv_pos_site_id
_symmetry_equiv_pos_as_xyz
 1 'x,y,z'
 2 '-x,-y,-z'
 3 '-1/2+x,-1/2+y,z'
 4 '-1/2-x,-1/2-y,-z'
loop_
_atom_site_label
_atom_site_type_symbol
_atom_site_fract_x
_atom_site_fract_y
_atom_site_fract_z
H1    H     0.04924490983067 0.49090234039958 0.53811942033467 
H2    H     0.95070597001091 0.49066904954191 0.96208765966697 
H3    H     0.08468585003291 0.17929372022266 0.63685393998880 
H4    H     0.91510635002267 0.17930404914585 0.86328816966538 
H5    H     0.02285527017548 0.74762987072325 0.45576237973031 
H6    H     0.97723017981379 0.74735707009719 0.04442654021155 
H7    H     0.99241005011466 0.07752596988611 0.35784670018001 
H8    H     0.00785518013611 0.07731754967821 0.14227898982270 
H9    H     0.17644837983244 0.15623908019132 0.61867811998563 
H10   H     0.82333950982566 0.15683806920916 0.88131874028388 
H11   H     0.23322895997513 0.44849649908880 0.49799993010694 
H12   H     0.76671209999844 0.44929208021988 0.00196010976139 
H13   H     0.24658358014786 0.79050374022303 0.37451512963578 
H14   H     0.75353535018611 0.79130840984598 0.12547446995117 
H15   H     0.21389804987906 0.11634815032038 0.27583484018183 
H16   H     0.78639612014999 0.11702241951014 0.22416289981602 
H17   H     0.14346116996947 0.32974660003709 0.22957420964504 
H18   H     0.85694203998433 0.33017422999784 0.27044263972703 
H19   H     0.05275490989114 0.37628974083047 0.24479999994158 
H20   H     0.94767512987332 0.37642278963088 0.25523688029948 
C1    C     0.08961434999728 0.48465550925139 0.52858095029855 
C2    C     0.91033654014179 0.48465907930412 0.97156742975172 
C3    C     0.12075266987810 0.65399851080302 0.45986912966159 
C4    C     0.87928831993698 0.65416727927843 0.04024106966552 
C5    C     0.10151818998221 0.84280055025699 0.40056846978037 
C6    C     0.89862257012523 0.84290568978325 0.09954603989509 
C7    C     0.10931833007398 0.30839663962868 0.58442721990402 
C8    C     0.89054285991953 0.30853925954543 0.91568408012311 
C9    C     0.17356421005055 0.63770644944671 0.44919353968977 
C10   C     0.82647075015284 0.63815617001383 0.05085765970362 
C11   C     0.04991656985498 0.87164758097738 0.40624616973771 
C12   C     0.95023783016750 0.87154433080540 0.09389954009494 
C13   C     0.13571715006423 0.01032004969033 0.33444310978708 
C14   C     0.86451538005645 0.01062841915052 0.16562198017469 
C15   C     0.16137408018112 0.29474331055041 0.57412261991263 
C16   C     0.83848370019426 0.29519947070502 0.92591673988120 
C17   C     0.19282543017313 0.45715313937304 0.50724040974181 
C18   C     0.80711740987560 0.45773990018347 0.99277452024028 
C19   C     0.03250436019124 0.05927685995327 0.35116521987545 
C20   C     0.96775198014955 0.05919936954769 0.14894659009617 
C21   C     0.20648129017348 0.80544790073198 0.38045374993796 
C22   C     0.79364430004596 0.80606185927257 0.11956444017483 
C23   C     0.18838329010560 0.98546996072440 0.32589202032422 
C24   C     0.81183838005107 0.98601041908406 0.17413435979294 
C25   C     0.11714527010501 0.20057850929546 0.27889436994046 
C26   C     0.88318844009461 0.20087941046340 0.22115198022935 
C27   C     0.06629749989696 0.22629851908530 0.28724010993745 
C28   C     0.93404964993404 0.22642542068263 0.21281931994130 
