data_stdin
_audit_creation_method 'critic2'
_audit_creation_date 2023-8-11
_chemical_formula_sum 'C14 H10'
_cell_formula_units_Z 4
_cell_length_a         8.2533051900
_cell_length_b         6.1118490600
_cell_length_c        18.7349025100
_cell_angle_alpha        90.0000
_cell_angle_beta        90.0001
_cell_angle_gamma        89.9998
_cell_volume           945.043855
_space_group_crystal_system orthorhombic
_space_group_IT_number 29
_space_group_name_H-M_alt 'Pca2_1'
_space_group_name_Hall 'P 2c -2ac'
loop_
_symmetry_equiv_pos_site_id
_symmetry_equiv_pos_as_xyz
 1 'x,y,z'
 2 '-x,-y,-1/2+z'
 3 '-1/2-x,y,-1/2+z'
 4 '-1/2+x,-y,z'
loop_
_atom_site_label
_atom_site_type_symbol
_atom_site_fract_x
_atom_site_fract_y
_atom_site_fract_z
H1    H     0.22063924996101 0.86148127028022 0.00772366977816 
H2    H     0.28204925941159 0.88075924045906 0.88062238002725 
H3    H     0.17267808973112 0.85941092055152 0.11261308997820 
H4    H     0.11930334017656 0.87474183070563 0.24063811013156 
H5    H     0.18712720955602 0.19721529961671 0.80713563998470 
H6    H     0.02976908950679 0.49680580975305 0.86498318983729 
H7    H     0.90981272010889 0.66299279061973 0.96944857986223 
H8    H     0.85685082016527 0.66429125009255 0.09900017012679 
H9    H     0.88194959987117 0.49849703060748 0.21552247985670 
H10   H     0.97478946058298 0.19292059932955 0.29404026024093 
C1    C     0.17778593993494 0.00177604081563 0.97748637026551 
C2    C     0.09082527946237 0.17075153972691 0.01193021985050 
C3    C     0.05815636940523 0.17070350013484 0.08817453015302 
C4    C     0.21208678954392 0.01181442965188 0.90514788973390 
C5    C     0.03732540979363 0.35196737985070 0.96988812985961 
C6    C     0.10862228043365 0.00013147036380 0.13403537992191 
C7    C     0.97496896952093 0.35297126987264 0.11891860981506 
C8    C     0.15934466987305 0.19083800978322 0.86390906999480 
C9    C     0.07244765964039 0.35742759964747 0.89600946004648 
C10   C     0.07886239016442 0.00873467936524 0.20672474016393 
C11   C     0.95062779948127 0.52780164000369 0.00272577015851 
C12   C     0.92134468015266 0.52865621014668 0.07435365016484 
C13   C     0.94641109038518 0.35830036922930 0.19338214023744 
C14   C     0.99760845017437 0.18900590000660 0.23682380984523 
