data_stdin
_audit_creation_method 'critic2'
_audit_creation_date 2023-8-11
_chemical_formula_sum 'C14 H10'
_cell_formula_units_Z 8
_cell_length_a        39.6549893829
_cell_length_b         5.9676055638
_cell_length_c         8.3814732400
_cell_angle_alpha        89.9971
_cell_angle_beta        83.5650
_cell_angle_gamma        89.9923
_cell_volume          1970.940141
_space_group_crystal_system triclinic
_space_group_IT_number 2
_space_group_name_H-M_alt 'P-1'
_space_group_name_Hall '-P 1'
loop_
_symmetry_equiv_pos_site_id
_symmetry_equiv_pos_as_xyz
 1 'x,y,z'
 2 '-x,-y,-z'
 3 '-1/2+x,-1/2+y,z'
 4 '-1/2-x,-1/2-y,-z'
loop_
_atom_site_label
_atom_site_type_symbol
_atom_site_fract_x
_atom_site_fract_y
_atom_site_fract_z
H1    H     0.40376659011791 0.36951323003463 0.61980160027077 
H2    H     0.59619738000789 0.36994561961309 0.88021129988368 
H3    H     0.46443813991021 0.40922130048148 0.53986158958883 
H4    H     0.53552492996142 0.40996869004965 0.96004579970038 
H5    H     0.35390055997358 0.35430858047959 0.69147051056894 
H6    H     0.64606578998577 0.35453090017072 0.80857030026867 
H7    H     0.29339272003327 0.35104484018324 0.78064397947104 
H8    H     0.70657324994191 0.35105129918540 0.71939525057235 
H9    H     0.48738050006443 0.74620542066653 0.38625761038900 
H10   H     0.51259825991253 0.74708272960400 0.11357907972677 
H11   H     0.44757392012597 0.03987101054355 0.30989886970443 
H12   H     0.55242110001376 0.04051418989791 0.19000792968590 
H13   H     0.39086353999873 0.18689754945071 0.31118643975688 
H14   H     0.60914059993307 0.18724318026404 0.18881530001844 
H15   H     0.32929235002012 0.16458137962262 0.39405914036010 
H16   H     0.67071173994127 0.16467427073560 0.10597027007246 
H17   H     0.28083408986980 0.97858981929288 0.53931312051455 
H18   H     0.71915980002521 0.97853598063572 0.96069956030403 
H19   H     0.25576610000942 0.65983933959870 0.70453935962385 
H20   H     0.74421364012245 0.65970597960989 0.79548169976857 
C1    C     0.41279089005127 0.51696670050818 0.55179536036311 
C2    C     0.58718001008248 0.51744272083190 0.94819599029912 
C3    C     0.38960907001410 0.68248551006465 0.51209761942571 
C4    C     0.61037075999055 0.68284929013226 0.98791027969721 
C5    C     0.35337315001338 0.67002930050638 0.56243825975994 
C6    C     0.64660703002211 0.67024156960640 0.93759033999111 
C7    C     0.44731511002390 0.53957883989374 0.50696468999955 
C8    C     0.55265538989425 0.54023234963528 0.99296733955302 
C9    C     0.40277221998440 0.87338011996100 0.42279186057285 
C10   C     0.59721638994712 0.87380097949328 0.07719305973078 
C11   C     0.33840325007204 0.49200311959279 0.65623064023496 
C12   C     0.66156911993970 0.49216604991819 0.84380524053307 
C13   C     0.33191332999365 0.84801393006293 0.52032770059875 
C14   C     0.66807518991281 0.84813924964803 0.97969862989019 
C15   C     0.46018232989925 0.72881104954451 0.42008536014463 
C16   C     0.53979691009481 0.72953068022067 0.07981194971572 
C17   C     0.43814110986713 0.89262584962002 0.37796276056970 
C18   C     0.56184730007145 0.89322212931285 0.12196996047862 
C19   C     0.30391630011694 0.48896508054629 0.70624217981226 
C20   C     0.69605598002054 0.48900489060837 0.79379307028638 
C21   C     0.38016884008994 0.04465314023493 0.38042952993699 
C22   C     0.61982850004832 0.04496403034130 0.11957516961861 
C23   C     0.34613739009699 0.03217919074012 0.42648627019875 
C24   C     0.65385982989795 0.03235041031582 0.07353533999204 
C25   C     0.29674569002961 0.84108957948471 0.57276635045755 
C26   C     0.70324243999855 0.84109107964142 0.92725776965681 
C27   C     0.28283912995775 0.66411747017542 0.66444237955813 
C28   C     0.71714093993774 0.66407747927747 0.83558374022494 
