data_stdin
_audit_creation_method 'critic2'
_audit_creation_date 2023-8-11
_chemical_formula_sum 'C14 H10'
_cell_formula_units_Z 4
_cell_length_a         8.0810467774
_cell_length_b         7.9702700401
_cell_length_c        14.6317580796
_cell_angle_alpha        90.0000
_cell_angle_beta        86.9319
_cell_angle_gamma        90.0001
_cell_volume           941.053319
_space_group_crystal_system monoclinic
_space_group_IT_number 14
_space_group_name_H-M_alt 'P2_1/c'
_space_group_name_Hall '-P 2ybc'
loop_
_symmetry_equiv_pos_site_id
_symmetry_equiv_pos_as_xyz
 1 'x,y,z'
 2 '-x,-y,-z'
 3 '-x,-1/2+y,-1/2-z'
 4 'x,-1/2-y,-1/2+z'
loop_
_atom_site_label
_atom_site_type_symbol
_atom_site_fract_x
_atom_site_fract_y
_atom_site_fract_z
H1    H     0.58667029024703 0.75016805013986 0.05597809973443 
H2    H     0.63227896041527 0.54049012046997 0.93517517993507 
H3    H     0.58321726961970 0.91394369946404 0.15959788972235 
H4    H     0.55346289986755 0.13190798989630 0.27690201011598 
H5    H     0.80988906058479 0.60543452967247 0.79532037972979 
H6    H     0.93972163035112 0.88807332961074 0.77768473030467 
H7    H     0.97895115007262 0.17176987027719 0.83174647000399 
H8    H     0.93064356012550 0.39224225984562 0.94902457001711 
H9    H     0.81609971988966 0.48188705026150 0.09808999022417 
H10   H     0.66850407014505 0.41921814006564 0.24704479989555 
C1    C     0.66550500002645 0.78194693970381 0.99589247026490 
C2    C     0.73787739973896 0.94308806947791 0.98814671024229 
C3    C     0.71716058049310 0.06974775945081 0.05911172993674 
C4    C     0.69035324952130 0.66327038999079 0.92753421030595 
C5    C     0.83559430016877 0.98160270966535 0.90665482969310 
C6    C     0.63396788987764 0.03788091013569 0.14477891978157 
C7    C     0.78583614018872 0.23289021034188 0.04322501025148 
C8    C     0.79032474994921 0.70028770014557 0.84837785986942 
C9    C     0.86138741956165 0.85732056995048 0.83836794018250 
C10   C     0.61715706002845 0.16097906027952 0.21130754974770 
C11   C     0.90504897968850 0.14573634943118 0.89457729986845 
C12   C     0.87895770053729 0.26710007978808 0.95938723028808 
C13   C     0.76448500975635 0.35748222967984 0.11167960013499 
C14   C     0.68160932045799 0.32276480943838 0.19455932008098 
