data_stdin
_audit_creation_method 'critic2'
_audit_creation_date 2023-8-11
_chemical_formula_sum 'C14 H10'
_cell_formula_units_Z 4
_cell_length_a         4.6607628470
_cell_length_b        12.4002558027
_cell_length_c        15.8004554194
_cell_angle_alpha        90.0001
_cell_angle_beta        90.0020
_cell_angle_gamma        89.9976
_cell_volume           913.181814
_space_group_crystal_system orthorhombic
_space_group_IT_number 19
_space_group_name_H-M_alt 'P2_12_12_1'
_space_group_name_Hall 'P 2ac 2ab'
loop_
_symmetry_equiv_pos_site_id
_symmetry_equiv_pos_as_xyz
 1 'x,y,z'
 2 '-1/2-x,-y,-1/2+z'
 3 '-1/2+x,-1/2-y,-z'
 4 '-x,-1/2+y,-1/2-z'
loop_
_atom_site_label
_atom_site_type_symbol
_atom_site_fract_x
_atom_site_fract_y
_atom_site_fract_z
H1    H     0.63562060904808 0.30357165033754 0.84130630992768 
H2    H     0.99429702934893 0.25936940004262 0.94930665983575 
H3    H     0.37991888022438 0.34811382988064 0.74637766017427 
H4    H     0.02886668064362 0.40403517966698 0.63947856982674 
H5    H     0.17328595044163 0.40099767972833 0.04815981007344 
H6    H     0.98580713994074 0.58676504996477 0.03798883015342 
H7    H     0.67302512927140 0.72049771039380 0.97204796974820 
H8    H     0.30690535986178 0.76951828028733 0.86528394026732 
H9    H     0.99717476054654 0.72181675026477 0.74790974968517 
H10   H     0.82536698067188 0.58943537983894 0.64100271001962 
C1    C     0.71119430105631 0.36701694002506 0.88321102021929 
C2    C     0.60296753071495 0.47287370002518 0.87482362023751 
C3    C     0.39637121075013 0.50284677960245 0.81026100975956 
C4    C     0.91264157927271 0.34140434036555 0.94437589982131 
C5    C     0.70269767049478 0.55297044968557 0.93274200009463 
C6    C     0.29750102040539 0.43012858970812 0.74788460006945 
C7    C     0.28851444933189 0.61052769001354 0.80839783015719 
C8    C     0.01363382073571 0.42093732964556 0.00040574982125 
C9    C     0.90859101015456 0.52490655039558 0.99464295021377 
C10   C     0.09873561904426 0.46130314000817 0.68753585970275 
C11   C     0.59288244934740 0.66053046016730 0.92745469017028 
C12   C     0.39176487059353 0.68770175976215 0.86842176008589 
C13   C     0.08150656089836 0.63992586998794 0.74717990000297 
C14   C     0.98636229995483 0.56662623987257 0.68757410986969 
