data_stdin
_audit_creation_method 'critic2'
_audit_creation_date 2023-8-11
_chemical_formula_sum 'C14 H10'
_cell_formula_units_Z 4
_cell_length_a         7.8190626292
_cell_length_b         5.4281465512
_cell_length_c        28.0291151146
_cell_angle_alpha        90.0012
_cell_angle_beta        54.9181
_cell_angle_gamma        90.0004
_cell_volume           973.520228
_space_group_crystal_system monoclinic
_space_group_IT_number 14
_space_group_name_H-M_alt 'P2_1/c'
_space_group_name_Hall '-P 2ybc'
loop_
_symmetry_equiv_pos_site_id
_symmetry_equiv_pos_as_xyz
 1 'x,y,z'
 2 '-x,-y,-z'
 3 '-x,-1/2+y,-1/2-z'
 4 'x,-1/2-y,-1/2+z'
loop_
_atom_site_label
_atom_site_type_symbol
_atom_site_fract_x
_atom_site_fract_y
_atom_site_fract_z
H1    H     0.43921732016067 0.64920364080925 0.66581385015593 
H2    H     0.29080343960903 0.63993686968306 0.60916639020831 
H3    H     0.55860803949443 0.64370110975424 0.71220031997877 
H4    H     0.71369849046135 0.62882322969402 0.76663204994091 
H5    H     0.39235755061279 0.31148651070416 0.53535811999709 
H6    H     0.64981963033007 0.99088240927537 0.51864593980765 
H7    H     0.87868215938778 0.80793826028541 0.54122600020406 
H8    H     0.03343080968087 0.80612388928240 0.59688038011969 
H9    H     0.07040238010196 0.98705492037081 0.66995348994722 
H10   H     0.97404989035764 0.30113681976744 0.74575577980550 
C1    C     0.48657182953798 0.50372681038646 0.63388409003235 
C2    C     0.63160459997188 0.32331800035526 0.62574950008957 
C3    C     0.72197406028330 0.32163550062119 0.65882889002336 
C4    C     0.40271297063967 0.49919857948299 0.60181953995412 
C5    C     0.69042098984963 0.13574845081749 0.58317975011827 
C6    C     0.67009057982130 0.49836053029657 0.70223258009945 
C7    C     0.86848181980177 0.13328060926628 0.64759586990191 
C8    C     0.46028754952958 0.31374343078783 0.56007494009314 
C9    C     0.60239007936612 0.13524702951834 0.55097711016354 
C10   C     0.75846757974159 0.49077473029776 0.73318183987214 
C11   C     0.83719264023715 0.94999560945431 0.57361876990599 
C12   C     0.92318214943625 0.94964192064534 0.60434125997138 
C13   C     0.95683163015962 0.12995163916245 0.67963712985941 
C14   C     0.90343917949632 0.30561682984712 0.72176545011408 
