data_stdin
_audit_creation_method 'critic2'
_audit_creation_date 2023-8-11
_chemical_formula_sum 'C14 H10'
_cell_formula_units_Z 4
_cell_length_a         9.6226972922
_cell_length_b         5.6678157311
_cell_length_c        17.8844716530
_cell_angle_alpha        89.9989
_cell_angle_beta        84.5337
_cell_angle_gamma        90.0005
_cell_volume           970.977472
_space_group_crystal_system monoclinic
_space_group_IT_number 14
_space_group_name_H-M_alt 'P2_1/c'
_space_group_name_Hall '-P 2ybc'
loop_
_symmetry_equiv_pos_site_id
_symmetry_equiv_pos_as_xyz
 1 'x,y,z'
 2 '-x,-y,-z'
 3 '-x,-1/2+y,-1/2-z'
 4 'x,-1/2-y,-1/2+z'
loop_
_atom_site_label
_atom_site_type_symbol
_atom_site_fract_x
_atom_site_fract_y
_atom_site_fract_z
H1    H     0.06071597087646 0.03326160133505 0.27769201350352 
H2    H     0.30844948017421 0.03508093786272 0.23448104275060 
H3    H     0.85976144530705 0.03303436982641 0.31676650493836 
H4    H     0.61360747468123 0.05165407313096 0.36346059645380 
H5    H     0.46549099786389 0.35083170088174 0.27677099261542 
H6    H     0.36538294791783 0.67090435229374 0.36057998838974 
H7    H     0.16801562058559 0.85749545819978 0.43164167395095 
H8    H     0.91602836981100 0.87005109946302 0.47456046443337 
H9    H     0.68418234056205 0.70382979946010 0.47813498178858 
H10   H     0.52156376672681 0.38814943418754 0.44355915510763 
C1    C     0.12564217766850 0.17389296319875 0.29651757869625 
C2    C     0.06585368277101 0.35220198031749 0.34456346510582 
C3    C     0.91824668714061 0.35732330367428 0.37084138997787 
C4    C     0.26671833169417 0.17410346353545 0.27216311938689 
C5    C     0.15495586414281 0.53519161237879 0.36731420504110 
C6    C     0.82370261752628 0.18068747534307 0.35223078497731 
C7    C     0.86571790200289 0.54802710488792 0.41747791041559 
C8    C     0.35444804260092 0.35272092876561 0.29554909128354 
C9    C     0.29889375187471 0.53050282367806 0.34233157225343 
C10   C     0.68375790170030 0.19065838762832 0.37870546132800 
C11   C     0.09758480943710 0.72105310038978 0.41485576880821 
C12   C     0.95884076202137 0.72770265787231 0.43859044358957 
C13   C     0.72217034945044 0.55587814059807 0.44298286274236 
C14   C     0.63216494313917 0.37981239260097 0.42422746089299 
