data_stdin
_audit_creation_method 'critic2'
_audit_creation_date 2023-8-11
_chemical_formula_sum 'C14 H10'
_cell_formula_units_Z 4
_cell_length_a         9.4255767325
_cell_length_b         4.7197005905
_cell_length_c        21.5948665614
_cell_angle_alpha        90.0006
_cell_angle_beta        79.1924
_cell_angle_gamma        90.0025
_cell_volume           943.627198
_space_group_crystal_system monoclinic
_space_group_IT_number 14
_space_group_name_H-M_alt 'P2_1/c'
_space_group_name_Hall '-P 2ybc'
loop_
_symmetry_equiv_pos_site_id
_symmetry_equiv_pos_as_xyz
 1 'x,y,z'
 2 '-x,-y,-z'
 3 '-x,-1/2+y,-1/2-z'
 4 'x,-1/2-y,-1/2+z'
loop_
_atom_site_label
_atom_site_type_symbol
_atom_site_fract_x
_atom_site_fract_y
_atom_site_fract_z
H1    H     0.07482359021522 0.30861110018934 0.04722235016987 
H2    H     0.28698723964711 0.54866481909208 0.07231423017838 
H3    H     0.89988662977810 0.10371689935614 0.03243400021366 
H4    H     0.67933481941580 0.87477856056629 0.01272199019166 
H5    H     0.26029692953516 0.89887919958836 0.16094284992002 
H6    H     0.01683238035354 0.01137787978062 0.22124870977876 
H7    H     0.75825563017320 0.94487885902659 0.24258612014383 
H8    H     0.53847625030732 0.70914799964594 0.22014564982211 
H9    H     0.42390674960727 0.37500325900048 0.15906936984236 
H10   H     0.43933469045237 0.01265311957795 0.07464266979019 
C1    C     0.06010895028435 0.46032635091806 0.08577029979476 
C2    C     0.92014518008530 0.51563678082483 0.12033688010306 
C3    C     0.79159927027871 0.37543410049872 0.10749447015937 
C4    C     0.18056469029593 0.59547366058703 0.09991572001044 
C5    C     0.90562830014125 0.72001349940401 0.16989938006933 
C6    C     0.79649510043412 0.16658377911714 0.06031989987157 
C7    C     0.65402368023005 0.44857720069155 0.14406640009004 
C8    C     0.16578812993234 0.79328558082056 0.14945120998317 
C9    C     0.02993706003289 0.85599164044917 0.18337883003247 
C10   C     0.67219772024871 0.03774932920164 0.04883244983286 
C11   C     0.76555880999283 0.78531659987161 0.20562760013625 
C12   C     0.64478565980404 0.65534509900008 0.19319210997547 
C13   C     0.52830253031056 0.31594553975569 0.13110831014550 
C14   C     0.53668083970670 0.11429974909961 0.08410793011320 
