data_stdin
_audit_creation_method 'critic2'
_audit_creation_date 2023-8-11
_chemical_formula_sum 'C14 H10'
_cell_formula_units_Z 4
_cell_length_a        19.8707764948
_cell_length_b         5.9926144407
_cell_length_c         8.2606972860
_cell_angle_alpha        90.0515
_cell_angle_beta        90.0057
_cell_angle_gamma        90.0009
_cell_volume           983.666100
_space_group_crystal_system monoclinic
_space_group_IT_number 4
_space_group_name_H-M_alt 'P2_1'
_space_group_name_Hall 'P 2yb'
loop_
_symmetry_equiv_pos_site_id
_symmetry_equiv_pos_as_xyz
 1 'x,y,z'
 2 '-1/2+x,-1/2-y,-z'
loop_
_atom_site_label
_atom_site_type_symbol
_atom_site_fract_x
_atom_site_fract_y
_atom_site_fract_z
H1    H     0.79968959981529 0.14986488962572 0.76852029040976 
H2    H     0.20035832983712 0.64910600064863 0.73155560963757 
H3    H     0.92203636020634 0.13922315054433 0.77696023979575 
H4    H     0.07801247978753 0.63849298937212 0.72289211956620 
H5    H     0.69949454009808 0.14430442050630 0.76639108956739 
H6    H     0.30049932975257 0.64348456992334 0.73364725023278 
H7    H     0.57736771009119 0.11580701960264 0.77491235055916 
H8    H     0.42262261999538 0.61487722041119 0.72480135059964 
H9    H     0.98533810981605 0.81971581045207 0.65615916969314 
H10   H     0.01467732982371 0.31925250959698 0.84352068000872 
H11   H     0.92212110994288 0.50783412989250 0.52567366962795 
H12   H     0.07783044998413 0.00759021945648 0.97390976993615 
H13   H     0.81702907983872 0.33584640062983 0.44429084967012 
H14   H     0.18297039991641 0.83555435014182 0.05528987984926 
H15   H     0.69289529991372 0.32667211045735 0.44470364984703 
H16   H     0.30709255016066 0.82633238998524 0.05485407000453 
H17   H     0.58570644022900 0.48284715058580 0.52640386960173 
H18   H     0.41433014020870 0.98235357931170 0.97300247017488 
H19   H     0.51841842987104 0.78559904028272 0.65609480962768 
H20   H     0.48157976010149 0.28480279944900 0.84333422986750 
C1    C     0.82545520983738 0.00854236949948 0.71424470039230 
C2    C     0.17457495990649 0.50781514999551 0.78561799020094 
C3    C     0.78822543995857 0.83379730042679 0.64229119980515 
C4    C     0.21178450014922 0.33296376001905 0.85724052981556 
C5    C     0.71514251993569 0.82873949922634 0.64202944027842 
C6    C     0.28486398022837 0.32786787006805 0.85747841052368 
C7    C     0.89507295024809 0.00291420928109 0.71904905047932 
C8    C     0.10495725989599 0.50233536029523 0.78085037945086 
C9    C     0.82440637011175 0.65140848986369 0.57254558055023 
C10   C     0.17559160016746 0.15059750009956 0.92673649039640 
C11   C     0.67562400978789 0.99878657954462 0.71286022979077 
C12   C     0.32437832025023 0.49797660082536 0.78694921993549 
C13   C     0.68140728990051 0.64097643028017 0.57268417996753 
C14   C     0.31859533981969 0.14009399070273 0.92655423980326 
C15   C     0.93058114985329 0.82229010993005 0.65146766001276 
C16   C     0.06943421976084 0.32176928059964 0.84821528942807 
C17   C     0.89558635982731 0.64941401044916 0.57884106983378 
C18   C     0.10440695011680 0.14883122050665 0.92058491043391 
C19   C     0.60613527008931 0.98304708073252 0.71765444017919 
C20   C     0.39386731990366 0.48229574030021 0.78213421949242 
C21   C     0.78839703983042 0.47120023984739 0.49883977993148 
C22   C     0.21159626986336 0.97066117081652 0.00055823047430 
C23   C     0.71975405008783 0.46608934960000 0.49908008029260 
C24   C     0.28024291980062 0.96551607063014 0.00030411037873 
C25   C     0.61033011009007 0.62847745993101 0.57915394980069 
C26   C     0.38967752023641 0.12772271014086 0.92016095961594 
C27   C     0.57308087996749 0.79651600917607 0.65122269012750 
C28   C     0.42691998005588 0.29577255917791 0.84830775951026 
