data_stdin
_audit_creation_method 'critic2'
_audit_creation_date 2023-8-11
_chemical_formula_sum 'C14 H10'
_cell_formula_units_Z 8
_cell_length_a        18.5373794901
_cell_length_b        12.4684017000
_cell_length_c         8.2010406147
_cell_angle_alpha        90.0000
_cell_angle_beta        90.0021
_cell_angle_gamma        89.9999
_cell_volume          1895.518768
_space_group_crystal_system orthorhombic
_space_group_IT_number 56
_space_group_name_H-M_alt 'Pccn'
_space_group_name_Hall '-P 2ab 2ac'
loop_
_symmetry_equiv_pos_site_id
_symmetry_equiv_pos_as_xyz
 1 'x,y,z'
 2 '-x,-y,-z'
 3 '-1/2-x,-1/2-y,z'
 4 '-1/2+x,-1/2+y,-z'
 5 '-x,-1/2+y,-1/2-z'
 6 'x,-1/2-y,-1/2+z'
 7 '-1/2+x,-y,-1/2-z'
 8 '-1/2-x,y,-1/2+z'
loop_
_atom_site_label
_atom_site_type_symbol
_atom_site_fract_x
_atom_site_fract_y
_atom_site_fract_z
H1    H     0.56342726995782 0.23252013002203 0.96002138057883 
H2    H     0.68883935992921 0.23260162981845 0.04681860043348 
H3    H     0.46042524991870 0.23729316993443 0.89052681041906 
H4    H     0.33314796991231 0.24419960002075 0.81607063052643 
H5    H     0.73245386994970 0.36261636039792 0.25727921984450 
H6    H     0.64691187003671 0.49719146981628 0.37207065055197 
H7    H     0.52759007987240 0.57633836004587 0.38633254974415 
H8    H     0.39860803026738 0.57548756974286 0.31197959024078 
H9    H     0.29775099011908 0.49759256980964 0.16412756990248 
H10   H     0.24947337997005 0.37203817038856 0.95627677024115 
C1    C     0.58029602975909 0.29009409028009 0.05197128002282 
C2    C     0.53007875974029 0.36316809018432 0.11842789039422 
C3    C     0.45447593980111 0.36401564974071 0.07191905049509 
C4    C     0.65173808977455 0.29009911020137 0.10116176031872 
C5    C     0.55540445011428 0.43948087030731 0.23521232959602 
C6    C     0.42555861989136 0.29395597992956 0.95329460029375 
C7    C     0.40715481977885 0.43966682021217 0.14703135975888 
C8    C     0.67621350005328 0.36379080011389 0.21869411979615 
C9    C     0.62870641978505 0.43800657967384 0.28332515995385 
C10   C     0.35324092994187 0.29742850981267 0.91111499045607 
C11   C     0.50647436992651 0.51675590001788 0.30187613005609 
C12   C     0.43520539009989 0.51593071985010 0.26100764964342 
C13   C     0.33321171991863 0.43992529024803 0.10478592010983 
C14   C     0.30638880023529 0.37013008010653 0.98876272956876 
