data_stdin
_audit_creation_method 'critic2'
_audit_creation_date 2023-8-11
_chemical_formula_sum 'C14 H10'
_cell_formula_units_Z 4
_cell_length_a         9.2918201858
_cell_length_b         6.0860622892
_cell_length_c        19.4157306302
_cell_angle_alpha        90.0018
_cell_angle_beta        59.6853
_cell_angle_gamma        89.9968
_cell_volume           947.841300
_space_group_crystal_system monoclinic
_space_group_IT_number 14
_space_group_name_H-M_alt 'P2_1/c'
_space_group_name_Hall '-P 2ybc'
loop_
_symmetry_equiv_pos_site_id
_symmetry_equiv_pos_as_xyz
 1 'x,y,z'
 2 '-x,-y,-z'
 3 '-x,-1/2+y,-1/2-z'
 4 'x,-1/2-y,-1/2+z'
loop_
_atom_site_label
_atom_site_type_symbol
_atom_site_fract_x
_atom_site_fract_y
_atom_site_fract_z
H1    H     0.08704296056363 0.29518645048447 0.31870204973478 
H2    H     0.08771581030567 0.24922779966687 0.19405377001605 
H3    H     0.08491164023989 0.32099850051925 0.42228862971187 
H4    H     0.10953277032137 0.35897036957469 0.54116761981988 
H5    H     0.22363497981206 0.91976626927705 0.10738000989765 
H6    H     0.34862138956554 0.63265156931668 0.15224164986088 
H7    H     0.41636138978255 0.48969963037470 0.24876295021804 
H8    H     0.43822099004284 0.53987633052508 0.36911128993909 
H9    H     0.39328510980860 0.75880538071663 0.48268327011641 
H10   H     0.26825640973117 0.08231598941785 0.57167854982510 
C1    C     0.14389332056210 0.14844050921136 0.28344948978548 
C2    C     0.21594451965474 0.98977570934949 0.30998066989918 
C3    C     0.22357073029459 0.01568465068835 0.38247057020702 
C4    C     0.14582472979548 0.12386898072499 0.21204059022066 
C5    C     0.28854163000857 0.79907987924001 0.26161919986245 
C6    C     0.15270799966181 0.19644593001573 0.43457264988246 
C7    C     0.30837914028132 0.85314061061166 0.40190319020803 
C8    C     0.22081239005002 0.93812762962522 0.16383427973195 
C9    C     0.28964036002374 0.77744601001364 0.18880993995008 
C10   C     0.16731720022327 0.21897108009338 0.50172129014077 
C11   C     0.36497925985382 0.63559639937831 0.28566447978003 
C12   C     0.37632573958316 0.66303046064511 0.35247151017982 
C13   C     0.32433547072482 0.88179485041275 0.47005650965917 
C14   C     0.25542681993983 0.06224346996615 0.51933506984719 
