data_stdin
_audit_creation_method 'critic2'
_audit_creation_date 2023-8-11
_chemical_formula_sum 'C14 H10'
_cell_formula_units_Z 4
_cell_length_a         9.4262617582
_cell_length_b         4.7114772548
_cell_length_c        21.6406007102
_cell_angle_alpha        89.9892
_cell_angle_beta        79.1406
_cell_angle_gamma        89.9990
_cell_volume           943.883298
_space_group_crystal_system monoclinic
_space_group_IT_number 14
_space_group_name_H-M_alt 'P2_1/c'
_space_group_name_Hall '-P 2ybc'
loop_
_symmetry_equiv_pos_site_id
_symmetry_equiv_pos_as_xyz
 1 'x,y,z'
 2 '-x,-y,-z'
 3 '-x,-1/2+y,-1/2-z'
 4 'x,-1/2-y,-1/2+z'
loop_
_atom_site_label
_atom_site_type_symbol
_atom_site_fract_x
_atom_site_fract_y
_atom_site_fract_z
H1    H     0.92545152988571 0.19007129096691 0.45288174980728 
H2    H     0.71310083022654 0.95092459040318 0.42776364984274 
H3    H     0.10033894968777 0.39552529913698 0.46743851004906 
H4    H     0.32097165013000 0.62429390099016 0.48712359008586 
H5    H     0.73952308009962 0.60129809029159 0.33910792983281 
H6    H     0.98285505013881 0.48861048979127 0.27873984003924 
H7    H     0.24164452013508 0.55465904039430 0.25737690021873 
H8    H     0.46157290060603 0.78940898953880 0.27986158978753 
H9    H     0.57638776984513 0.12341487026126 0.34098044994479 
H10   H     0.56098097041950 0.48566901971057 0.42533887016791 
C1    C     0.94005539949379 0.03871385928932 0.41429829003658 
C2    C     0.07997574976119 0.98347391056336 0.37966840981051 
C3    C     0.20860394945601 0.12350197929945 0.39247325019121 
C4    C     0.81950103033245 0.90397521062874 0.40015700996935 
C5    C     0.09434632002672 0.77940279996394 0.33008647003019 
C6    C     0.20374403028947 0.33244217098696 0.43959494006851 
C7    C     0.34618175960764 0.05018084941085 0.35591693003574 
C8    C     0.83411479055962 0.70661182924099 0.35058240990946 
C9    C     0.96993374017537 0.64383941089662 0.31661167994890 
C10   C     0.32808010967602 0.46106652040859 0.45108947994872 
C11   C     0.23442086968594 0.71403029961623 0.29434699995690 
C12   C     0.35529294033562 0.84352146102199 0.30680678003700 
C13   C     0.47194883002410 0.18250331895723 0.36890013023569 
C14   C     0.46361001996490 0.38416554040955 0.41586349981498 
