data_stdin
_audit_creation_method 'critic2'
_audit_creation_date 2023-8-11
_chemical_formula_sum 'C14 H10'
_cell_formula_units_Z 8
_cell_length_a         5.8372410832
_cell_length_b        19.7779349801
_cell_length_c        16.9117676568
_cell_angle_alpha        90.0002
_cell_angle_beta        89.9998
_cell_angle_gamma        90.0005
_cell_volume          1952.439470
_space_group_crystal_system orthorhombic
_space_group_IT_number 20
_space_group_name_H-M_alt 'C222_1'
_space_group_name_Hall 'C 2c 2'
loop_
_symmetry_equiv_pos_site_id
_symmetry_equiv_pos_as_xyz
 1 'x,y,z'
 2 '-x,-y,-1/2+z'
 3 'x,-y,-z'
 4 '-x,y,-1/2-z'
 5 '-1/2+x,-1/2+y,z'
 6 '-1/2-x,-1/2-y,-1/2+z'
 7 '-1/2+x,-1/2-y,-z'
 8 '-1/2-x,-1/2+y,-1/2-z'
loop_
_atom_site_label
_atom_site_type_symbol
_atom_site_fract_x
_atom_site_fract_y
_atom_site_fract_z
H1    H     0.46469622970584 0.77280367977736 0.03961061013932 
H2    H     0.45846077081114 0.89600744985492 0.04279218990684 
H3    H     0.46500615933928 0.67194855013020 0.03966575978016 
H4    H     0.45607158050021 0.54903963976396 0.04329357029195 
H5    H     0.14405187978064 0.95745620020268 0.11360266982020 
H6    H     0.83015551006341 0.89193248987398 0.17709230005494 
H7    H     0.64833905935822 0.78551348016576 0.20924345014527 
H8    H     0.64698942061766 0.66043913013877 0.20889940020041 
H9    H     0.82492493921462 0.55385385017353 0.17570920015396 
H10   H     0.13688280059013 0.48778162996017 0.11125194029491 
C1    C     0.32448936971181 0.79796170024699 0.06985185022444 
C2    C     0.14966059953727 0.75940726993165 0.10600711992249 
C3    C     0.14906405040467 0.68592835022726 0.10588930014998 
C4    C     0.32209793068031 0.86800885984685 0.07208557023899 
C5    C     0.96695568995524 0.79462843011120 0.14424681988849 
C6    C     0.32339707000987 0.64719768981831 0.06970401985676 
C7    C     0.96553957032879 0.65094867000068 0.14394252023718 
C8    C     0.14429935011050 0.90242403995496 0.11134996981075 
C9    C     0.96909905064118 0.86608245978053 0.14645474004088 
C10   C     0.31876631049829 0.57719089986597 0.07177868975157 
C11   C     0.78559728954699 0.75733210976993 0.18081804995883 
C12   C     0.78494093996758 0.68845967988434 0.18065603001062 
C13   C     0.96503990014309 0.57947036992694 0.14542955011059 
C14   C     0.13909865035643 0.54282136017531 0.11006392017450 
