data_stdin
_audit_creation_method 'critic2'
_audit_creation_date 2023-8-11
_chemical_formula_sum 'C14 H10'
_cell_formula_units_Z 4
_cell_length_a        10.3831328323
_cell_length_b        17.2236911700
_cell_length_c         5.8032995946
_cell_angle_alpha        89.9993
_cell_angle_beta       109.8221
_cell_angle_gamma        90.0000
_cell_volume           976.346274
_space_group_crystal_system monoclinic
_space_group_IT_number 14
_space_group_name_H-M_alt 'P2_1/c'
_space_group_name_Hall '-P 2ybc'
loop_
_symmetry_equiv_pos_site_id
_symmetry_equiv_pos_as_xyz
 1 'x,y,z'
 2 '-x,-y,-z'
 3 '-x,-1/2+y,-1/2-z'
 4 'x,-1/2-y,-1/2+z'
loop_
_atom_site_label
_atom_site_type_symbol
_atom_site_fract_x
_atom_site_fract_y
_atom_site_fract_z
H1    H     0.90142325982185 0.20719515022084 0.00366891003844 
H2    H     0.65412275048715 0.20482590973764 0.90597702025046 
H3    H     0.10555734032939 0.21075884989624 0.10064074077779 
H4    H     0.35343752981506 0.20654627020987 0.21431740912181 
H5    H     0.54976352036553 0.13688045018612 0.18048358026104 
H6    H     0.70095535985762 0.07352858999987 0.56200614040684 
H7    H     0.92592304011018 0.03869281992236 0.83721515927305 
H8    H     0.17745118056990 0.03458039992483 0.93980294065620 
H9    H     0.38130096035852 0.06637086020671 0.84562673968447 
H10   H     0.49528829995561 0.13267822007853 0.58664532057815 
C1    C     0.85985466031127 0.17787869012145 0.12876276948735 
C2    C     0.94815812951567 0.14211946005146 0.34353543988803 
C3    C     0.09614258975947 0.14143801980205 0.40728664989476 
C4    C     0.71903523971478 0.17613663014826 0.07170656078374 
C5    C     0.88838406956359 0.10447603993959 0.50224850950186 
C6    C     0.16389129014123 0.17900209018827 0.26441740040353 
C7    C     0.17739947014347 0.10132287991859 0.62310407917584 
C8    C     0.66056717987058 0.13839988027586 0.22754584927411 
C9    C     0.74446853022240 0.10348221990101 0.44008462920252 
C10   C     0.30506178053562 0.17641861028485 0.32842008035754 
C11   C     0.97427147986782 0.06656721026183 0.71926965910540 
C12   C     0.11274146982925 0.06445334985311 0.77605516004247 
C13   C     0.32113233988489 0.09847854023132 0.68288809961343 
C14   C     0.38447273021765 0.13525063972355 0.53800009984192 
