data_stdin
_audit_creation_method 'critic2'
_audit_creation_date 2023-8-11
_chemical_formula_sum 'C14 H10'
_cell_formula_units_Z 2
_cell_length_a         5.2270578729
_cell_length_b         5.2455358409
_cell_length_c        19.2353670361
_cell_angle_alpha        74.6313
_cell_angle_beta        85.5076
_cell_angle_gamma        73.7919
_cell_volume           488.331246
_space_group_crystal_system triclinic
_space_group_IT_number 2
_space_group_name_H-M_alt 'P-1'
_space_group_name_Hall '-P 1'
loop_
_symmetry_equiv_pos_site_id
_symmetry_equiv_pos_as_xyz
 1 'x,y,z'
 2 '-x,-y,-z'
loop_
_atom_site_label
_atom_site_type_symbol
_atom_site_fract_x
_atom_site_fract_y
_atom_site_fract_z
H1    H     0.01315049978608 0.71248665083488 0.30380351983097 
H2    H     0.00548429917809 0.57337476965580 0.43528171024113 
H3    H     0.01396297036155 0.81851047892228 0.19681572022852 
H4    H     0.00617536967805 0.94208764047025 0.06529065992605 
H5    H     0.74581522948156 0.24597764010503 0.50032517995479 
H6    H     0.49297271067898 0.06252098051458 0.42996496976327 
H7    H     0.35035836994477 0.03411578968260 0.31598729986097 
H8    H     0.35068409929795 0.16687770961380 0.18268694978336 
H9    H     0.49245446932245 0.42329384971521 0.06914008975301 
H10   H     0.74501153011603 0.74687092026271 0.99950737983902 
C1    C     0.89824368977177 0.57017880939251 0.33049585990239 
C2    C     0.75690395009441 0.46903838002865 0.28907192988679 
C3    C     0.75713652918923 0.54697822008143 0.21078952984087 
C4    C     0.89418868990008 0.49172259928407 0.40507905985461 
C5    C     0.60831184002230 0.28255145937016 0.32632331981482 
C6    C     0.89891197898447 0.72999257049660 0.16978039026640 
C7    C     0.60854404950753 0.43530056900371 0.17310875024202 
C8    C     0.74785777908326 0.30754920000613 0.44161931024872 
C9    C     0.60730910969782 0.20513936987682 0.40256974012984 
C10   C     0.89487681016463 0.80046813984807 0.09518369024582 
C11   C     0.46213033056666 0.17583419961960 0.28624701022968 
C12   C     0.46228346990373 0.24906137029728 0.21275577002309 
C13   C     0.60732599922812 0.51036399965333 0.09686083014050 
C14   C     0.74798210892568 0.69022364057473 0.05822046012817 
