data_stdin
_audit_creation_method 'critic2'
_audit_creation_date 2023-8-11
_chemical_formula_sum 'C14 H10'
_cell_formula_units_Z 8
_cell_length_a        39.6707469476
_cell_length_b         5.9547142708
_cell_length_c         8.4058544899
_cell_angle_alpha        89.9999
_cell_angle_beta        96.6380
_cell_angle_gamma        90.0007
_cell_volume          1972.386417
_space_group_crystal_system monoclinic
_space_group_IT_number 15
_space_group_name_H-M_alt 'C2/c'
_space_group_name_Hall '-C 2yc'
loop_
_symmetry_equiv_pos_site_id
_symmetry_equiv_pos_as_xyz
 1 'x,y,z'
 2 '-x,-y,-z'
 3 '-x,y,-1/2-z'
 4 'x,-y,-1/2+z'
 5 '-1/2+x,-1/2+y,z'
 6 '-1/2-x,-1/2-y,-z'
 7 '-1/2-x,-1/2+y,-1/2-z'
 8 '-1/2+x,-1/2-y,-1/2+z'
loop_
_atom_site_label
_atom_site_type_symbol
_atom_site_fract_x
_atom_site_fract_y
_atom_site_fract_z
H1    H     0.35393022736934 0.64608594121756 0.80910138198549 
H2    H     0.29339190906931 0.64895145203021 0.71927255000083 
H3    H     0.40374968101793 0.63124332109207 0.88119353698553 
H4    H     0.46446783695270 0.59164174884435 0.96142462740868 
H5    H     0.25580176212677 0.34004090492192 0.79558254912824 
H6    H     0.28089709726997 0.02142983888450 0.96144784149105 
H7    H     0.32940339471422 0.83589404395367 0.10775636484026 
H8    H     0.39096153793689 0.81410359015549 0.19153030742372 
H9    H     0.44772700798640 0.96096168570399 0.19232019883882 
H10   H     0.48746492370644 0.25489983885784 0.11559638451731 
C1    C     0.33843458838200 0.50831044326239 0.84432357658044 
C2    C     0.35342024414750 0.33036476915168 0.93854787109212 
C3    C     0.38966651089502 0.31816688498646 0.98930574299410 
C4    C     0.30394763839845 0.51104367376911 0.79385975353107 
C5    C     0.33198735467473 0.15219232440434 0.98064615191738 
C6    C     0.41281577741756 0.48383143499491 0.94946752156013 
C7    C     0.40286137443688 0.12734469630311 0.07902315303473 
C8    C     0.28288908063424 0.33573635665811 0.83571653239496 
C9    C     0.29681393062945 0.15885881327486 0.92782329865129 
C10   C     0.44735152293887 0.46128938177906 0.99442369636987 
C11   C     0.34623662674255 0.96825191289133 0.07508285676839 
C12   C     0.38027175186192 0.95608822782372 0.12164220045821 
C13   C     0.43824868693149 0.10807728137856 0.12388691939622 
C14   C     0.46025762350939 0.27194944120773 0.08153627133210 
