data_stdin
_audit_creation_method 'critic2'
_audit_creation_date 2023-8-11
_chemical_formula_sum 'C14 H10'
_cell_formula_units_Z 4
_cell_length_a         7.9710338345
_cell_length_b         7.9127329100
_cell_length_c        15.6020987814
_cell_angle_alpha        90.0002
_cell_angle_beta        90.7474
_cell_angle_gamma        90.0000
_cell_volume           983.982172
_space_group_crystal_system monoclinic
_space_group_IT_number 14
_space_group_name_H-M_alt 'P2_1/c'
_space_group_name_Hall '-P 2ybc'
loop_
_symmetry_equiv_pos_site_id
_symmetry_equiv_pos_as_xyz
 1 'x,y,z'
 2 '-x,-y,-z'
 3 '-x,-1/2+y,-1/2-z'
 4 'x,-1/2-y,-1/2+z'
loop_
_atom_site_label
_atom_site_type_symbol
_atom_site_fract_x
_atom_site_fract_y
_atom_site_fract_z
H1    H     0.00415173997671 0.44021721050058 0.72555160010959 
H2    H     0.77387614033357 0.42791950972169 0.62125923013223 
H3    H     0.19688698982237 0.47109076018795 0.80856039010379 
H4    H     0.41917151014975 0.50375524996688 0.91597228996289 
H5    H     0.51087653967231 0.59502879961087 0.64410341028931 
H6    H     0.47862145962089 0.76066335978065 0.77734498010147 
H7    H     0.58329757968097 0.85130949949884 0.91723652968752 
H8    H     0.81130734938130 0.86653084978707 0.02603585996217 
H9    H     0.09348056949579 0.80339129025471 0.07331055022056 
H10   H     0.37069990986818 0.66860195036232 0.05004359019256 
C1    C     0.89107785015961 0.51274321949613 0.73772906985801 
C2    C     0.87791630021800 0.60904011033247 0.81367023994846 
C3    C     0.01305938052809 0.62137733013588 0.87683719024358 
C4    C     0.76087579026015 0.50631259973483 0.67813886985883 
C5    C     0.72429290029288 0.69724766025689 0.82830532991492 
C6    C     0.17156665961673 0.54496830037481 0.86574244975885 
C7    C     0.98657241949855 0.71690389980665 0.95317529982986 
C8    C     0.61237550018056 0.59843491966946 0.69149272993621 
C9    C     0.59410439992440 0.69127425054017 0.76579485974812 
C10   C     0.29798694972358 0.56262149973892 0.92678761016160 
C11   C     0.70336211979571 0.78986285991706 0.90627567976639 
C12   C     0.82874945955544 0.79812770050780 0.96635436993800 
C13   C     0.11698101059637 0.73149482006966 0.01510843026570 
C14   C     0.27109136010350 0.65635409024855 0.00203870975316 
