data_stdin
_audit_creation_method 'critic2'
_audit_creation_date 2023-8-11
_chemical_formula_sum 'C14 H10'
_cell_formula_units_Z 8
_cell_length_a        16.7270295700
_cell_length_b        19.7508871527
_cell_length_c         5.8805846440
_cell_angle_alpha        90.0007
_cell_angle_beta        90.0014
_cell_angle_gamma        90.0000
_cell_volume          1942.790350
_space_group_crystal_system orthorhombic
_space_group_IT_number 41
_space_group_name_H-M_alt 'Aea2'
_space_group_name_Hall 'A 2 -2ac'
loop_
_symmetry_equiv_pos_site_id
_symmetry_equiv_pos_as_xyz
 1 'x,y,z'
 2 '-x,-y,z'
 3 '-1/2-x,y,-1/2+z'
 4 '-1/2+x,-y,-1/2+z'
 5 'x,-1/2+y,-1/2+z'
 6 '-x,-1/2-y,-1/2+z'
 7 '-1/2-x,-1/2+y,z'
 8 '-1/2+x,-1/2-y,z'
loop_
_atom_site_label
_atom_site_type_symbol
_atom_site_fract_x
_atom_site_fract_y
_atom_site_fract_z
H1    H     0.46132034997896 0.32763957995496 0.01403962994928 
H2    H     0.45730735990179 0.45066746013344 0.01061584047519 
H3    H     0.45994968986364 0.22627317005225 0.01163551051392 
H4    H     0.45395541002003 0.10302132982560 0.00395388079008 
H5    H     0.38854574974357 0.51321298020492 0.69656800980203 
H6    H     0.32439340995212 0.44807918995052 0.38200824079155 
H7    H     0.29243466974974 0.34184455987687 0.19800592994564 
H8    H     0.29112328003184 0.21728669021062 0.19552048076355 
H9    H     0.31929283022498 0.10990954006512 0.37824289922662 
H10   H     0.38097210008121 0.04291465989249 0.69108972996794 
C1    C     0.43113843011780 0.35288553021268 0.87408023979929 
C2    C     0.39483040001288 0.31470129975502 0.69913264976240 
C3    C     0.39390346972661 0.24111483007379 0.69780642991563 
C4    C     0.42879641981413 0.42299739022571 0.87264041007303 
C5    C     0.35681168981429 0.35044722994625 0.51766547943955 
C6    C     0.42916516980053 0.20173806997278 0.87151556007635 
C7    C     0.35509205973285 0.20657718981037 0.51502510999452 
C8    C     0.39007491991803 0.45810061022553 0.69582142939623 
C9    C     0.35483955019362 0.42204196018610 0.52067222946806 
C10   C     0.42522066002327 0.13164530020039 0.86843386047644 
C11   C     0.32020863026663 0.31362034004468 0.33579878013835 
C12   C     0.31946424997124 0.24460346001853 0.33436863966149 
C13   C     0.35076635013109 0.13505797995246 0.51691499988486 
C14   C     0.38486684998001 0.09795700023711 0.69141473035627 
