data_stdin
_audit_creation_method 'critic2'
_audit_creation_date 2023-8-11
_chemical_formula_sum 'C14 H10'
_cell_formula_units_Z 4
_cell_length_a         9.8324823888
_cell_length_b         5.5866125403
_cell_length_c        19.6614560933
_cell_angle_alpha        89.9995
_cell_angle_beta        60.3143
_cell_angle_gamma        89.9998
_cell_volume           938.263673
_space_group_crystal_system monoclinic
_space_group_IT_number 14
_space_group_name_H-M_alt 'P2_1/c'
_space_group_name_Hall '-P 2ybc'
loop_
_symmetry_equiv_pos_site_id
_symmetry_equiv_pos_as_xyz
 1 'x,y,z'
 2 '-x,-y,-z'
 3 '-x,-1/2+y,-1/2-z'
 4 'x,-1/2-y,-1/2+z'
loop_
_atom_site_label
_atom_site_type_symbol
_atom_site_fract_x
_atom_site_fract_y
_atom_site_fract_z
H1    H     0.71177181007134 0.33887242017876 0.68394175986528 
H2    H     0.95104563008889 0.30020399054063 0.55816490014158 
H3    H     0.50820293957455 0.34405676085194 0.78539977010322 
H4    H     0.26983863994507 0.35361618069895 0.91222875989445 
H5    H     0.13185445955079 0.95309345942527 0.53138940009561 
H6    H     0.06775936015714 0.64838631034184 0.63540515001103 
H7    H     0.90344327063030 0.50256625984084 0.76672153975885 
H8    H     0.66596223986524 0.53269502039793 0.89631649002729 
H9    H     0.42157840014065 0.73012695999186 0.98577766009195 
H10   H     0.22479085922768 0.05156661963668 0.01541305028910 
C1    C     0.78801861045714 0.18669855967337 0.67463060985773 
C2    C     0.74815966956504 0.01508981058986 0.73447159002015 
C3    C     0.60567172971775 0.02865360062015 0.80997718003270 
C4    C     0.92423637967083 0.16545454019446 0.60310011991613 
C5    C     0.85301756954732 0.81963464917477 0.71937620014379 
C6    C     0.49141239968814 0.20821334979929 0.82841942988036 
C7    C     0.57754649990040 0.85195509929218 0.86811565972352 
C8    C     0.02585951971745 0.97011184023562 0.58798130028331 
C9    C     0.99012101978099 0.79995491004650 0.64546220997245 
C10   C     0.35608315002086 0.21462038993699 0.90074035987904 
C11   C     0.82041443032514 0.64753527073946 0.77943280003717 
C12   C     0.68911724957209 0.66453768920302 0.85103620998220 
C13   C     0.43947999990113 0.86416107986992 0.94183834981796 
C14   C     0.33013213009214 0.04272306056122 0.95824551016259 
