data_stdin
_audit_creation_method 'critic2'
_audit_creation_date 2023-8-11
_chemical_formula_sum 'C14 H10'
_cell_formula_units_Z 4
_cell_length_a         3.8898705752
_cell_length_b        12.0122873642
_cell_length_c        20.4579278851
_cell_angle_alpha        89.9993
_cell_angle_beta        73.1657
_cell_angle_gamma        89.9968
_cell_volume           914.957509
_space_group_crystal_system monoclinic
_space_group_IT_number 14
_space_group_name_H-M_alt 'P2_1/c'
_space_group_name_Hall '-P 2ybc'
loop_
_symmetry_equiv_pos_site_id
_symmetry_equiv_pos_as_xyz
 1 'x,y,z'
 2 '-x,-y,-z'
 3 '-x,-1/2+y,-1/2-z'
 4 'x,-1/2-y,-1/2+z'
loop_
_atom_site_label
_atom_site_type_symbol
_atom_site_fract_x
_atom_site_fract_y
_atom_site_fract_z
H1    H     0.50123041940605 0.17697583995177 0.26222277002284 
H2    H     0.64536381124756 0.25439950985017 0.14707612995435 
H3    H     0.40136652987133 0.11659874965357 0.35613971024300 
H4    H     0.28689113932422 0.04604439017990 0.47257150982818 
H5    H     0.90701009996635 0.44532557976439 0.12288435003367 
H6    H     0.01498979926958 0.55727364961178 0.21679776014099 
H7    H     0.99338191918714 0.57990210003901 0.33599559997528 
H8    H     0.86992879972427 0.50430292982324 0.45275876024282 
H9    H     0.66800562018574 0.35356240965069 0.53430251974693 
H10   H     0.41982408112170 0.16347301020433 0.56293682979251 
C1    C     0.61641471937445 0.26001943024362 0.25322709971177 
C2    C     0.67926669870896 0.32123616996944 0.30764354021774 
C3    C     0.60562730961077 0.27697773034175 0.37635486995159 
C4    C     0.69690396975108 0.30366470993987 0.18791567989075 
C5    C     0.82226384997243 0.43105844007090 0.29383313019243 
C6    C     0.46388609917968 0.16931827022365 0.39429370989256 
C7    C     0.67869244045901 0.34420179005610 0.42835371981044 
C8    C     0.84178263147035 0.41136909967078 0.17438165980282 
C9    C     0.90137688928063 0.47393462036285 0.22676478975963 
C10   C     0.39854876910728 0.12916269037950 0.46015004002937 
C11   C     0.88677855071179 0.49602278987037 0.34773828978858 
C12   C     0.81871951061867 0.45419786993944 0.41219316002972 
C13   C     0.61005570960428 0.30127788007360 0.49526797979400 
C14   C     0.47249298031351 0.19537521969559 0.51115992974245 
