data_stdin
_audit_creation_method 'critic2'
_audit_creation_date 2023-8-11
_chemical_formula_sum 'C14 H10'
_cell_formula_units_Z 8
_cell_length_a        17.2928841000
_cell_length_b        19.6782254802
_cell_length_c         5.7966352832
_cell_angle_alpha        90.0005
_cell_angle_beta        90.0019
_cell_angle_gamma        90.0002
_cell_volume          1972.555989
_space_group_crystal_system orthorhombic
_space_group_IT_number 56
_space_group_name_H-M_alt 'Pccn'
_space_group_name_Hall '-P 2ab 2ac'
loop_
_symmetry_equiv_pos_site_id
_symmetry_equiv_pos_as_xyz
 1 'x,y,z'
 2 '-x,-y,-z'
 3 '-1/2-x,-1/2-y,z'
 4 '-1/2+x,-1/2+y,-z'
 5 '-1/2+x,-y,-1/2-z'
 6 '-1/2-x,y,-1/2+z'
 7 '-x,-1/2+y,-1/2-z'
 8 'x,-1/2-y,-1/2+z'
loop_
_atom_site_label
_atom_site_type_symbol
_atom_site_fract_x
_atom_site_fract_y
_atom_site_fract_z
H1    H     0.20858538010030 0.55081415984580 0.96496922012902 
H2    H     0.20502731992147 0.67435379982268 0.95786610933320 
H3    H     0.20849228003149 0.44905739019651 0.96478431971858 
H4    H     0.20495308995976 0.32551942022597 0.95672950974946 
H5    H     0.13526639026891 0.73605322011322 0.64220674964243 
H6    H     0.07156127026656 0.66993833982315 0.32920751057329 
H7    H     0.03961455988348 0.56307058993308 0.14785857068117 
H8    H     0.03968539998147 0.43731913014039 0.14725898986473 
H9    H     0.07162441971786 0.33032868023102 0.32785124924618 
H10   H     0.13522036013223 0.26402116995993 0.64056177987314 
C1    C     0.17842726015967 0.57581306998216 0.82422221949744 
C2    C     0.14240382019017 0.53695985001470 0.64952563965363 
C3    C     0.14240155973791 0.46310860020641 0.64926161994648 
C4    C     0.17613752977750 0.64618841018914 0.82116462971161 
C5    C     0.10418584999787 0.57226583977562 0.46680755974322 
C6    C     0.17837947982693 0.42414681001004 0.82376570976530 
C7    C     0.10422258000897 0.42791686002301 0.46621180947068 
C8    C     0.13722890981598 0.68074330992642 0.64294669079226 
C9    C     0.10209828981762 0.64408169015269 0.46828734980315 
C10   C     0.17608365010682 0.35377377004306 0.82020181070397 
C11   C     0.06773602989134 0.53475953008670 0.28551479980827 
C12   C     0.06776904984039 0.46553881976706 0.28519859072049 
C13   C     0.10212410975672 0.35610003000482 0.46718836036573 
C14   C     0.13720955002650 0.31933025999305 0.64166514046622 
