data_stdin
_audit_creation_method 'critic2'
_audit_creation_date 2023-8-11
_chemical_formula_sum 'C14 H10'
_cell_formula_units_Z 8
_cell_length_a        42.0456095713
_cell_length_b         5.9943011276
_cell_length_c         8.3249817745
_cell_angle_alpha        90.0273
_cell_angle_beta        70.9172
_cell_angle_gamma        90.0605
_cell_volume          1982.876253
_space_group_crystal_system triclinic
_space_group_IT_number 2
_space_group_name_H-M_alt 'P-1'
_space_group_name_Hall '-P 1'
loop_
_symmetry_equiv_pos_site_id
_symmetry_equiv_pos_as_xyz
 1 'x,y,z'
 2 '-x,-y,-z'
 3 '-1/2+x,-1/2+y,z'
 4 '-1/2-x,-1/2-y,-z'
loop_
_atom_site_label
_atom_site_type_symbol
_atom_site_fract_x
_atom_site_fract_y
_atom_site_fract_z
H1    H     0.39506776007160 0.14715073021440 0.62527569999571 
H2    H     0.60484614993641 0.14508827920278 0.87477778998564 
H3    H     0.45504085003358 0.13024936077432 0.58318893992274 
H4    H     0.54487442007263 0.12700293986806 0.91682928017565 
H5    H     0.34570203006380 0.14688770921996 0.66449897945912 
H6    H     0.65422250002672 0.14579042995837 0.83563166942579 
H7    H     0.28523564995242 0.13037978931680 0.71618896039633 
H8    H     0.71468737994793 0.13028581988336 0.78393879998025 
H9    H     0.48966316011444 0.80613796935118 0.43165562983336 
H10   H     0.51028360003254 0.80255746938295 0.06842481979133 
H11   H     0.46210398002635 0.49836321922722 0.32505368966250 
H12   H     0.53787493995137 0.49549023945193 0.17504125003152 
H13   H     0.41270148988896 0.33220120077044 0.28456752012277 
H14   H     0.58729583006438 0.33023609996870 0.21534036059477 
H15   H     0.35154983988728 0.33077109011875 0.33549198044700 
H16   H     0.64845169995767 0.32988781957030 0.16438318025972 
H17   H     0.29633829011470 0.49594987930238 0.45940440989243 
H18   H     0.70363604993508 0.49596130027949 0.04058755956475 
H19   H     0.25959651988194 0.80603762008407 0.61632336021225 
H20   H     0.74035409008486 0.80653650042995 0.88373714975182 
C1    C     0.40928898003893 0.00440654971327 0.55869847040655 
C2    C     0.59064037986768 0.00218134982483 0.94138509025744 
C3    C     0.39294270991227 0.83156669077312 0.50055520036682 
C4    C     0.60700300002518 0.82979695999859 0.99963649045743 
C5    C     0.35692197009960 0.83098685945673 0.52978858948955 
C6    C     0.64302126998975 0.82986980930382 0.97033898973589 
C7    C     0.44347016992738 0.99545874923831 0.53422417058336 
C8    C     0.55646038995035 0.99256832041096 0.96583286947035 
C9    C     0.41270446003304 0.64720051938243 0.41379735051423 
C10   C     0.58725778988291 0.64519010051564 0.08632864026714 
C11   C     0.33543421989945 0.00385053964952 0.61796351978007 
C12   C     0.66449908004690 0.00299146999501 0.88215324942889 
C13   C     0.34223048994489 0.64567015995969 0.47165206056826 
C14   C     0.65773130987549 0.64489241026630 0.02844773014341 
C15   C     0.46282615013224 0.81268554064434 0.45005325957703 
C16   C     0.53712244008032 0.80954570971993 0.04998193035587 
C17   C     0.44757946003040 0.64164934972441 0.39037050006227 
C18   C     0.55238757998928 0.63893308928816 0.10969839029479 
C19   C     0.30107750988644 0.99447815004837 0.64805970002940 
C20   C     0.69885638998052 0.99418413023971 0.85204688956008 
C21   C     0.39706738999331 0.46909180924464 0.35278009014262 
C22   C     0.60291060004576 0.46746719985734 0.14733567052218 
C23   C     0.36323251000095 0.46813874930576 0.38101004053367 
C24   C     0.63674573002964 0.46711033078223 0.11909875957629 
C25   C     0.30700265007706 0.63922977079877 0.50469235056386 
C26   C     0.69296045009751 0.63900533007133 0.99534036950124 
C27   C     0.28666169993324 0.81111317043753 0.59177167011409 
C28   C     0.71328849996860 0.81113668020561 0.90827868049640 
