data_stdin
_audit_creation_method 'critic2'
_audit_creation_date 2023-8-11
_chemical_formula_sum 'C14 H10'
_cell_formula_units_Z 4
_cell_length_a        14.4513818301
_cell_length_b         5.6281601706
_cell_length_c        11.8544129800
_cell_angle_alpha        90.0009
_cell_angle_beta        90.0000
_cell_angle_gamma        90.0003
_cell_volume           964.175024
_space_group_crystal_system orthorhombic
_space_group_IT_number 19
_space_group_name_H-M_alt 'P2_12_12_1'
_space_group_name_Hall 'P 2ac 2ab'
loop_
_symmetry_equiv_pos_site_id
_symmetry_equiv_pos_as_xyz
 1 'x,y,z'
 2 '-1/2+x,-1/2-y,-z'
 3 '-x,-1/2+y,-1/2-z'
 4 '-1/2-x,-y,-1/2+z'
loop_
_atom_site_label
_atom_site_type_symbol
_atom_site_fract_x
_atom_site_fract_y
_atom_site_fract_z
H1    H     0.73106011975225 0.56858847956216 0.95182870007108 
H2    H     0.86846180030431 0.79056429059228 0.89400653030358 
H3    H     0.61264657006882 0.39735663059160 0.98567509037077 
H4    H     0.47898411000355 0.15113434051970 0.03759732004213 
H5    H     0.96116240024414 0.66149564933204 0.72741721002290 
H6    H     0.91008037031804 0.30978987074591 0.61555071020380 
H7    H     0.79963741990371 0.99671999083901 0.57682205975341 
H8    H     0.66439059993946 0.75621058078339 0.63367331030293 
H9    H     0.54094000004486 0.66911896080457 0.76631955977857 
H10   H     0.44339515998679 0.78068483968127 0.92934898000923 
C1    C     0.76887023987999 0.51070511075634 0.87742460993959 
C2    C     0.73731908021677 0.31300528937879 0.81456986997824 
C3    C     0.65565135989242 0.17692737940810 0.84520513997935 
C4    C     0.84732512981159 0.63512371912040 0.84573131964938 
C5    C     0.78910400999772 0.24326618968991 0.71734141023665 
C6    C     0.59789599021159 0.23844768959519 0.93690169017353 
C7    C     0.63226996033054 0.97083741050330 0.78090469975872 
C8    C     0.89898762026634 0.56397554969401 0.75092065009164 
C9    C     0.87019678970507 0.37024090031324 0.68821907020954 
C10   C     0.52257825019440 0.09956828031479 0.96675419011546 
C11   C     0.75949389985439 0.04421779072575 0.65122756011530 
C12   C     0.68483494016807 0.91160653912974 0.68248153975972 
C13   C     0.55656485979528 0.82842542083094 0.81458055961321 
C14   C     0.50243338002522 0.89065127042168 0.90620231024626 
