data_stdin
_audit_creation_method 'critic2'
_audit_creation_date 2023-8-11
_chemical_formula_sum 'C14 H10'
_cell_formula_units_Z 4
_cell_length_a         8.9777846988
_cell_length_b         5.6091977072
_cell_length_c        19.7076881464
_cell_angle_alpha        90.0028
_cell_angle_beta        73.1586
_cell_angle_gamma        90.0015
_cell_volume           949.877627
_space_group_crystal_system monoclinic
_space_group_IT_number 14
_space_group_name_H-M_alt 'P2_1/c'
_space_group_name_Hall '-P 2ybc'
loop_
_symmetry_equiv_pos_site_id
_symmetry_equiv_pos_as_xyz
 1 'x,y,z'
 2 '-x,-y,-z'
 3 '-x,-1/2+y,-1/2-z'
 4 'x,-1/2-y,-1/2+z'
loop_
_atom_site_label
_atom_site_type_symbol
_atom_site_fract_x
_atom_site_fract_y
_atom_site_fract_z
H1    H     0.58071583000836 0.83178986997797 0.26581800017072 
H2    H     0.56767454054738 0.80289625031184 0.39079857981216 
H3    H     0.58291232030196 0.83433940958107 0.16384957980806 
H4    H     0.60198804005361 0.83911528946885 0.03823928001170 
H5    H     0.69857760977567 0.46416737999819 0.43435100984508 
H6    H     0.84023438020199 0.15647950950522 0.34914396015640 
H7    H     0.93396108968143 0.00004305010194 0.23049581006224 
H8    H     0.95557681966149 0.02182526016262 0.10300209014138 
H9    H     0.89366573064919 0.21444609948448 0.00407723973616 
H10   H     0.75954376016383 0.53306290945072 0.95600972982322 
C1    C     0.63801191036815 0.68282032083778 0.28309067977512 
C2    C     0.71764541990267 0.51002571918162 0.23352200026103 
C3    C     0.72701489949424 0.51963014935768 0.15869064991267 
C4    C     0.63126666964460 0.66733915079803 0.35412520017721 
C5    C     0.79176590977321 0.31790574915485 0.25865414012226 
C6    C     0.65161009999611 0.69719106002613 0.12992109017661 
C7    C     0.81442241982663 0.34143855079518 0.11194523005682 
C8    C     0.70407211954421 0.47691148943134 0.37854946024414 
C9    C     0.78239370980128 0.30478666956307 0.33142523981636 
C10   C     0.66249617038218 0.70035900947788 0.05838434997108 
C11   C     0.87752231960750 0.14307725914761 0.20996504003941 
C12   C     0.88962778035944 0.15578983068856 0.13951127983785 
C13   C     0.82471015996916 0.34992780954438 0.03901032999371 
C14   C     0.75019876961280 0.52676941975830 0.01228962019696 
