data_stdin
_audit_creation_method 'critic2'
_audit_creation_date 2023-8-11
_chemical_formula_sum 'C14 H10'
_cell_formula_units_Z 4
_cell_length_a        19.4765780854
_cell_length_b         5.4719488511
_cell_length_c         9.3018627113
_cell_angle_alpha        89.9989
_cell_angle_beta        78.1725
_cell_angle_gamma        90.0001
_cell_volume           970.297312
_space_group_crystal_system monoclinic
_space_group_IT_number 5
_space_group_name_H-M_alt 'C2'
_space_group_name_Hall 'C 2y'
loop_
_symmetry_equiv_pos_site_id
_symmetry_equiv_pos_as_xyz
 1 'x,y,z'
 2 '-1/2-x,-1/2+y,-1/2-z'
 3 '-1/2+x,-1/2+y,-1/2+z'
 4 '-x,y,-z'
loop_
_atom_site_label
_atom_site_type_symbol
_atom_site_fract_x
_atom_site_fract_y
_atom_site_fract_z
H1    H     0.33647363998394 0.00159546021835 0.73892200993982 
H2    H     0.45984490008484 0.01168733910044 0.62023267029199 
H3    H     0.23592106992167 0.99999481019502 0.84078819007370 
H4    H     0.11270263022466 0.01560215026956 0.96286639025425 
H5    H     0.53916701012194 0.33842377066493 0.68200540995573 
H6    H     0.49102646999811 0.65375655029839 0.86713049958875 
H7    H     0.39336642013514 0.83294514090540 0.04131199028245 
H8    H     0.26823648985796 0.83562989913467 0.16255131020485 
H9    H     0.15173063007734 0.66210465026253 0.19945834961613 
H10   H     0.06904868026238 0.34373381961752 0.14645732947072 
C1    C     0.36929575980981 0.14530116078476 0.76925608019292 
C2    C     0.34039201010632 0.32257272982697 0.87486183051703 
C3    C     0.26675041000532 0.32397769080956 0.94682444000982 
C4    C     0.43955648993848 0.15072770069199 0.70151926040118 
C5    C     0.38568204013985 0.50858562972533 0.91042437045068 
C6    C     0.21849447993763 0.14629398031186 0.91865179981882 
C7    C     0.24143875002058 0.51301924072412 0.05004694962599 
C8    C     0.48409884000745 0.33408017992371 0.73648392964930 
C9    C     0.45723399979896 0.51005292985095 0.83948761975116 
C10   C     0.14852014992810 0.15383803057953 0.98874498003968 
C11   C     0.35803420987753 0.69215069000914 0.01621285035388 
C12   C     0.28881565017516 0.69472612071887 0.08279647048200 
C13   C     0.16979913989697 0.51705769035040 0.12033200946067 
C14   C     0.12397241002195 0.33978808977649 0.09087539012262 
