data_stdin
_audit_creation_method 'critic2'
_audit_creation_date 2023-8-11
_chemical_formula_sum 'C14 H10'
_cell_formula_units_Z 16
_cell_length_a        33.3581059583
_cell_length_b        19.2860588510
_cell_length_c         5.9950169113
_cell_angle_alpha        89.9991
_cell_angle_beta        90.0003
_cell_angle_gamma        90.0018
_cell_volume          3856.872513
_space_group_crystal_system orthorhombic
_space_group_IT_number 43
_space_group_name_H-M_alt 'Fdd2'
_space_group_name_Hall 'F 2 -2d'
loop_
_symmetry_equiv_pos_site_id
_symmetry_equiv_pos_as_xyz
 1 'x,y,z'
 2 '-1/2-x,-y,-1/2+z'
 3 '-1/4+x,-1/4-y,-3/4+z'
 4 '-1/4-x,-1/4+y,-3/4+z'
 5 '-1/2+x,y,-1/2+z'
 6 '-x,-y,z'
 7 '-3/4+x,-1/4-y,-1/4+z'
 8 '-3/4-x,-1/4+y,-1/4+z'
 9 'x,-1/2+y,-1/2+z'
 10 '-1/2-x,-1/2-y,z'
 11 '-1/4+x,-3/4-y,-1/4+z'
 12 '-1/4-x,-3/4+y,-1/4+z'
 13 '-1/2+x,-1/2+y,z'
 14 '-x,-1/2-y,-1/2+z'
 15 '-3/4+x,-3/4-y,-3/4+z'
 16 '-3/4-x,-3/4+y,-3/4+z'
loop_
_atom_site_label
_atom_site_type_symbol
_atom_site_fract_x
_atom_site_fract_y
_atom_site_fract_z
H1    H     0.21861918001441 0.42136350018953 0.52909957049811 
H2    H     0.20433122003854 0.29810080983840 0.49249882942476 
H3    H     0.23071932009404 0.52268027000263 0.54470026043437 
H4    H     0.24242892007942 0.64749401002981 0.56299084959629 
H5    H     0.16825426008211 0.25234246982223 0.15488506014546 
H6    H     0.14662733013186 0.33350870976223 0.86046631060019 
H7    H     0.14107034001161 0.45016236974272 0.71030186002829 
H8    H     0.15436438992323 0.57549975011074 0.73467816983679 
H9    H     0.18241073005082 0.67457611011834 0.93269354012032 
H10   H     0.21720797005191 0.72538407991340 0.26175024945108 
C1    C     0.20250664991708 0.40349245001501 0.38228977986787 
C2    C     0.19037950988086 0.45113035004488 0.21610992039578 
C3    C     0.19868418996458 0.52501736994290 0.22976707968368 
C4    C     0.19447060014033 0.33327046989943 0.36171785948948 
C5    C     0.16955890998044 0.42486081978562 0.02570244920609 
C6    C     0.21966898013951 0.55513020022287 0.41007399051267 
C7    C     0.18543251987157 0.56947887991577 0.05381783951837 
C8    C     0.17423233014615 0.30758649998832 0.17298929045780 
C9    C     0.16212562006808 0.35292132994296 0.00747718920173 
C10   C     0.22634885014508 0.62596468023667 0.42096977075043 
C11   C     0.15674989011882 0.47149870980524 0.85400096976320 
C12   C     0.16429785990667 0.54086241988602 0.86725805030690 
C13   C     0.19282243985192 0.64149649983975 0.06799173020591 
C14   C     0.21248584994842 0.66964866987734 0.24977630040004 
