data_stdin
_audit_creation_method 'critic2'
_audit_creation_date 2023-8-11
_chemical_formula_sum 'C14 H10'
_cell_formula_units_Z 4
_cell_length_a         5.8340181525
_cell_length_b         8.2750538743
_cell_length_c        20.5756787844
_cell_angle_alpha        90.0019
_cell_angle_beta        72.9384
_cell_angle_gamma        90.0008
_cell_volume           949.611964
_space_group_crystal_system monoclinic
_space_group_IT_number 14
_space_group_name_H-M_alt 'P2_1/c'
_space_group_name_Hall '-P 2ybc'
loop_
_symmetry_equiv_pos_site_id
_symmetry_equiv_pos_as_xyz
 1 'x,y,z'
 2 '-x,-y,-z'
 3 '-x,-1/2+y,-1/2-z'
 4 'x,-1/2-y,-1/2+z'
loop_
_atom_site_label
_atom_site_type_symbol
_atom_site_fract_x
_atom_site_fract_y
_atom_site_fract_z
H1    H     0.32417537010563 0.87606258019229 0.78540338001872 
H2    H     0.45277277922810 0.85702210054529 0.66207318015713 
H3    H     0.22836707946784 0.89042989022694 0.88642326012381 
H4    H     0.12217439013039 0.90498190025137 0.01067565979821 
H5    H     0.83200589989171 0.71204619982002 0.60144415025098 
H6    H     0.08032797083473 0.58834031965284 0.66847368998882 
H7    H     0.14781157075326 0.52482486954463 0.77636546007057 
H8    H     0.02597766942813 0.53930911959858 0.90137928998397 
H9    H     0.74891927920599 0.62778919962120 0.00821339018838 
H10   H     0.37948641963567 0.77409739973828 0.07294541013950 
C1    C     0.48933304046641 0.81208811034232 0.76086852979988 
C2    C     0.62620649008256 0.74364748045733 0.80028265993945 
C3    C     0.55542951904201 0.75353058966590 0.87403444013745 
C4    C     0.56194212070809 0.80080689999237 0.69060864979178 
C5    C     0.84301846011250 0.66148180023157 0.76561974000575 
C6    C     0.34488661945395 0.83349747021698 0.91230271017248 
C7    C     0.70311881019258 0.67910115941510 0.90998271014298 
C8    C     0.77589865004572 0.72010742973550 0.65667717005718 
C9    C     0.91425310909072 0.65189770993785 0.69378069018015 
C10   C     0.28401155084281 0.84118432977865 0.98252035989186 
C11   C     0.98423810039265 0.58770874026123 0.80375771013568 
C12   C     0.91651241978096 0.59579826962967 0.87299906979755 
C13   C     0.63557969088177 0.68751473045507 0.98178849979698 
C14   C     0.42975638911151 0.76782482995761 0.01774690008628 
