data_stdin
_audit_creation_method 'critic2'
_audit_creation_date 2023-8-11
_chemical_formula_sum 'C14 H10'
_cell_formula_units_Z 4
_cell_length_a        27.3788301858
_cell_length_b         6.3162409055
_cell_length_c         5.3521065490
_cell_angle_alpha        90.0003
_cell_angle_beta        89.9996
_cell_angle_gamma        89.9992
_cell_volume           925.546674
_space_group_crystal_system orthorhombic
_space_group_IT_number 19
_space_group_name_H-M_alt 'P2_12_12_1'
_space_group_name_Hall 'P 2ac 2ab'
loop_
_symmetry_equiv_pos_site_id
_symmetry_equiv_pos_as_xyz
 1 'x,y,z'
 2 '-1/2+x,-1/2-y,-z'
 3 '-1/2-x,-y,-1/2+z'
 4 '-x,-1/2+y,-1/2-z'
loop_
_atom_site_label
_atom_site_type_symbol
_atom_site_fract_x
_atom_site_fract_y
_atom_site_fract_z
H1    H     0.43055920997370 0.67883552927789 0.42507380987389 
H2    H     0.49246925009589 0.68029541012992 0.09757841085695 
H3    H     0.37482918004798 0.68112600941795 0.66874589072854 
H4    H     0.30865525985566 0.66398537005973 0.97858252941797 
H5    H     0.49632451001354 0.38496875950913 0.78495771939071 
H6    H     0.43968519995487 0.08026834953530 0.82544171991161 
H7    H     0.37627035998646 0.89212822972153 0.04738208933625 
H8    H     0.31288683985406 0.87917228058581 0.37490007067756 
H9    H     0.26844912007817 0.04503240922527 0.71468138068984 
H10   H     0.25524619001332 0.34878273035921 0.00599860074968 
C1    C     0.43186659009374 0.54654496962338 0.29535941037111 
C2    C     0.39834882005345 0.37760299005591 0.31920186968176 
C3    C     0.35999975994319 0.37322249010591 0.50686608978765 
C4    C     0.46688853016901 0.54856066997125 0.10818034944416 
C5    C     0.40270398015829 0.20403233979497 0.14937922976344 
C6    C     0.35172359989111 0.54129247987049 0.67583512017762 
C7    C     0.32895579003074 0.19180963943022 0.52280081050367 
C8    C     0.46961559013542 0.38106093076616 0.93543593087947 
C9    C     0.43812674984994 0.21112143032174 0.95779278908546 
C10   C     0.31454310011490 0.53227438953210 0.85099248065093 
C11   C     0.37125929983546 0.02460175924070 0.17492118954608 
C12   C     0.33619948981796 0.01786153072382 0.35547089995949 
C13   C     0.29143771996895 0.18573850969330 0.70430811975868 
C14   C     0.28406971002429 0.35338854925832 0.86598607033065 
