data_stdin
_audit_creation_method 'critic2'
_audit_creation_date 2023-8-11
_chemical_formula_sum 'C14 H10'
_cell_formula_units_Z 4
_cell_length_a         9.4625397739
_cell_length_b        15.5118572600
_cell_length_c         6.5659361539
_cell_angle_alpha        89.9998
_cell_angle_beta        80.0526
_cell_angle_gamma        90.0000
_cell_volume           949.269924
_space_group_crystal_system monoclinic
_space_group_IT_number 14
_space_group_name_H-M_alt 'P2_1/c'
_space_group_name_Hall '-P 2ybc'
loop_
_symmetry_equiv_pos_site_id
_symmetry_equiv_pos_as_xyz
 1 'x,y,z'
 2 '-x,-y,-z'
 3 '-x,-1/2+y,-1/2-z'
 4 'x,-1/2-y,-1/2+z'
loop_
_atom_site_label
_atom_site_type_symbol
_atom_site_fract_x
_atom_site_fract_y
_atom_site_fract_z
H1    H     0.35537322048737 0.79470378002258 0.95566253028245 
H2    H     0.10293362035696 0.79551487980440 0.11236970963133 
H3    H     0.56129944986793 0.79323375030485 0.81882564961279 
H4    H     0.81055686026411 0.79590652024377 0.64336053002066 
H5    H     0.92004081016641 0.86365727997105 0.92763870077131 
H6    H     0.99801552989522 0.92848903007534 0.58158977052295 
H7    H     0.18453051049902 0.96249779009757 0.28789579016057 
H8    H     0.43829155976994 0.96273138030573 0.12155398069486 
H9    H     0.68885635055951 0.93142699980903 0.12816039938563 
H10   H     0.87829216050575 0.86685038997231 0.29950138963391 
C1    C     0.27913063949700 0.82460672983015 0.87137775052099 
C2    C     0.32691130964448 0.86145786026793 0.67488586984510 
C3    C     0.47678976991886 0.86125556981230 0.57601555019417 
C4    C     0.13542060962201 0.82524664026148 0.96127387999341 
C5    C     0.22241869002193 0.89938120997677 0.56921103030607 
C6    C     0.58667259971408 0.82404351027398 0.66816384938441 
C7    C     0.51555731950468 0.89945463025057 0.37598391018547 
C8    C     0.03310787948812 0.86344414030058 0.85755300999044 
C9    C     0.07662373955708 0.89978920027964 0.66438721988445 
C10   C     0.72836684008599 0.82544766983550 0.56913724065244 
C11   C     0.26616621988167 0.93546719020345 0.36767698965002 
C12   C     0.40658490022249 0.93554347017691 0.27551328996435 
C13   C     0.66104476008195 0.90087757997257 0.27930430055608 
C14   C     0.76632591998082 0.86480500996074 0.37446511047838 
