data_stdin
_audit_creation_method 'critic2'
_audit_creation_date 2023-8-11
_chemical_formula_sum 'C14 H10'
_cell_formula_units_Z 4
_cell_length_a         9.4399465549
_cell_length_b        15.4502666442
_cell_length_c         6.5987733037
_cell_angle_alpha        90.0010
_cell_angle_beta        80.1023
_cell_angle_gamma        89.9990
_cell_volume           948.104485
_space_group_crystal_system monoclinic
_space_group_IT_number 14
_space_group_name_H-M_alt 'P2_1/c'
_space_group_name_Hall '-P 2ybc'
loop_
_symmetry_equiv_pos_site_id
_symmetry_equiv_pos_as_xyz
 1 'x,y,z'
 2 '-x,-y,-z'
 3 '-x,-1/2+y,-1/2-z'
 4 'x,-1/2-y,-1/2+z'
loop_
_atom_site_label
_atom_site_type_symbol
_atom_site_fract_x
_atom_site_fract_y
_atom_site_fract_z
H1    H     0.64185568977273 0.20480435973279 0.04896376963838 
H2    H     0.89452379975436 0.20398372969610 0.89150097053840 
H3    H     0.43614762021867 0.20755961972295 0.18795613945686 
H4    H     0.18684075012503 0.20503030030580 0.36422012069610 
H5    H     0.07894015007578 0.13643453990483 0.07494276039697 
H6    H     0.00220561042583 0.07201616979600 0.42021097928300 
H7    H     0.81615692033611 0.03755301979822 0.71300819922438 
H8    H     0.56215065022072 0.03660683010050 0.87930181931156 
H9    H     0.31057872024054 0.06762061009130 0.87396755960715 
H10   H     0.11997984024065 0.13294756030581 0.70552276067776 
C1    C     0.71877196011749 0.17513967017594 0.13266149949373 
C2    C     0.67172936989360 0.13856386013784 0.32881645964242 
C3    C     0.52172982032596 0.13870459013411 0.42806156070268 
C4    C     0.86258681966824 0.17445354975245 0.04229595944161 
C5    C     0.77704665992330 0.10085822970231 0.43356172953733 
C6    C     0.41119715011434 0.17629239012564 0.33748274044153 
C7    C     0.48357099016704 0.10014368015308 0.62692726053168 
C8    C     0.96577012967105 0.13662060992958 0.14532638990796 
C9    C     0.92296690046815 0.10051963972923 0.33806337034167 
C10   C     0.26942992051333 0.17485778007343 0.43686207925894 
C11   C     0.73391898948295 0.06451293986856 0.63404486055130 
C12   C     0.59332405050312 0.06407503025602 0.72622378975839 
C13   C     0.33793621966991 0.09855728979521 0.72384967032608 
C14   C     0.23200502025447 0.13498340981719 0.63017863928722 
