data_stdin
_audit_creation_method 'critic2'
_audit_creation_date 2023-8-11
_chemical_formula_sum 'C14 H10'
_cell_formula_units_Z 8
_cell_length_a        19.2032419222
_cell_length_b        12.2461580900
_cell_length_c         8.2221634756
_cell_angle_alpha        89.9996
_cell_angle_beta        83.4180
_cell_angle_gamma        89.9998
_cell_volume          1920.828260
_space_group_crystal_system monoclinic
_space_group_IT_number 15
_space_group_name_H-M_alt 'C2/c'
_space_group_name_Hall '-C 2yc'
loop_
_symmetry_equiv_pos_site_id
_symmetry_equiv_pos_as_xyz
 1 'x,y,z'
 2 '-1/2-x,-1/2-y,-z'
 3 '-x,y,-1/2-z'
 4 '-1/2+x,-1/2-y,-1/2+z'
 5 '-1/2+x,-1/2+y,z'
 6 '-x,-y,-z'
 7 '-1/2-x,-1/2+y,-1/2-z'
 8 'x,-y,-1/2+z'
loop_
_atom_site_label
_atom_site_type_symbol
_atom_site_fract_x
_atom_site_fract_y
_atom_site_fract_z
H1    H     0.29530297998575 0.02030425001889 0.40212242989249 
H2    H     0.41957654996066 0.02990022006097 0.30042019990568 
H3    H     0.19284028980859 0.00778305022043 0.49099128961103 
H4    H     0.07227881984989 0.99684488037467 0.62031656036244 
H5    H     0.50489724020264 0.89806183988757 0.39961365983741 
H6    H     0.46221463989548 0.75467529029944 0.59994162978162 
H7    H     0.36803858006145 0.66410128968460 0.76929703996266 
H8    H     0.24396097995395 0.65437474979769 0.88645480012451 
H9    H     0.12695357983901 0.72724582009987 0.91806860981942 
H10   H     0.03807368990288 0.85833308002798 0.84001295054546 
C1    C     0.33105536978143 0.96232378993540 0.44879416034862 
C2    C     0.30537454987578 0.88305564004846 0.56550173966161 
C3    C     0.23224033011758 0.87663804010823 0.63379605010498 
C4    C     0.40153452020186 0.96758122963681 0.39000362946972 
C5    C     0.35418886000164 0.80674164015612 0.61926837040142 
C6    C     0.17994870996119 0.94756358011407 0.58696093984683 
C7    C     0.21158758000043 0.79502911020105 0.75394003024507 
C8    C     0.44952972017762 0.89316071031514 0.44518248980941 
C9    C     0.42581504977415 0.81365489012148 0.55721189050883 
C10   C     0.11136580978515 0.94128460968897 0.65999897046125 
C11   C     0.33035126005483 0.72378556010974 0.73478308034932 
C12   C     0.26190496021734 0.71804689021176 0.79932148039662 
C13   C     0.14130680991293 0.79024233976396 0.82675955941621 
C14   C     0.09193903990899 0.86318554997553 0.78254435990974 
