data_stdin
_audit_creation_method 'critic2'
_audit_creation_date 2023-8-11
_chemical_formula_sum 'C14 H10'
_cell_formula_units_Z 4
_cell_length_a        19.3190811437
_cell_length_b         6.0061720201
_cell_length_c         8.3230506536
_cell_angle_alpha        89.9998
_cell_angle_beta        83.4695
_cell_angle_gamma        89.9997
_cell_volume           959.488166
_space_group_crystal_system monoclinic
_space_group_IT_number 14
_space_group_name_H-M_alt 'P2_1/c'
_space_group_name_Hall '-P 2ybc'
loop_
_symmetry_equiv_pos_site_id
_symmetry_equiv_pos_as_xyz
 1 'x,y,z'
 2 '-x,-y,-z'
 3 '-x,-1/2+y,-1/2-z'
 4 'x,-1/2-y,-1/2+z'
loop_
_atom_site_label
_atom_site_type_symbol
_atom_site_fract_x
_atom_site_fract_y
_atom_site_fract_z
H1    H     0.68079390022250 0.88560666955756 0.96245495029615 
H2    H     0.55565742005291 0.84945237968638 0.95120353992612 
H3    H     0.78448682017193 0.90189037053770 0.97197447036262 
H4    H     0.90941057001271 0.89950127023679 0.99316000947517 
H5    H     0.50729295018180 0.51938260980115 0.81721338950522 
H6    H     0.58814135989113 0.22825753082789 0.69362962021994 
H7    H     0.70305848991087 0.07539562015454 0.63454438036013 
H8    H     0.82952917986082 0.08894258059533 0.65349953017442 
H9    H     0.92949795020199 0.26585182928381 0.74958833003706 
H10   H     0.98362815993827 0.58090538026688 0.88284981002875 
C1    C     0.66156231983338 0.74119199980437 0.90253609043375 
C2    C     0.70853855976318 0.57602636028599 0.83586094985687 
C3    C     0.78310104981135 0.58497030936255 0.84639095050697 
C4    C     0.59046368989131 0.72121061929942 0.89599994001616 
C5    C     0.68057366992899 0.38816975066792 0.75987061978276 
C6    C     0.81532339997279 0.76187085972041 0.92164157954843 
C7    C     0.82589127976544 0.40456483009311 0.78201735973133 
C8    C     0.56321723995022 0.53576283029538 0.82084204025103 
C9    C     0.60791120995846 0.37277134050282 0.75314342051015 
C10   C     0.88631985019147 0.76147175919667 0.93338916993548 
C11   C     0.72585317002353 0.21510571967269 0.69293737043301 
C12   C     0.79569747020978 0.22281689987544 0.70350730947929 
C13   C     0.89803498013388 0.40667819972290 0.79707530051434 
C14   C     0.92806212973156 0.58226562996455 0.87134489053446 
