data_stdin
_audit_creation_method 'critic2'
_audit_creation_date 2023-8-11
_chemical_formula_sum 'C14 H10'
_cell_formula_units_Z 4
_cell_length_a        15.6900674954
_cell_length_b         5.6814769816
_cell_length_c        10.6364166912
_cell_angle_alpha        90.0011
_cell_angle_beta        94.7515
_cell_angle_gamma        89.9990
_cell_volume           944.901013
_space_group_crystal_system monoclinic
_space_group_IT_number 14
_space_group_name_H-M_alt 'P2_1/c'
_space_group_name_Hall '-P 2ybc'
loop_
_symmetry_equiv_pos_site_id
_symmetry_equiv_pos_as_xyz
 1 'x,y,z'
 2 '-x,-y,-z'
 3 '-x,-1/2+y,-1/2-z'
 4 'x,-1/2-y,-1/2+z'
loop_
_atom_site_label
_atom_site_type_symbol
_atom_site_fract_x
_atom_site_fract_y
_atom_site_fract_z
H1    H     0.13887894989595 0.88007240021832 0.94674146039085 
H2    H     0.01575999969758 0.83811777084492 0.07243401953658 
H3    H     0.24060612982627 0.90386260975526 0.84563974031387 
H4    H     0.36926097989427 0.93243097023919 0.73326121002089 
H5    H     0.00665185984340 0.50122197065407 0.22082478007126 
H6    H     0.12401694010103 0.20453764972758 0.24145359003395 
H7    H     0.25959918007317 0.05538747955407 0.18318513981019 
H8    H     0.38624756970560 0.08927307948891 0.06225552973595 
H9    H     0.46816192028102 0.29904417913520 0.91474824018543 
H10   H     0.48579938967581 0.63164556980983 0.76759868973108 
C1    C     0.13646644995169 0.73122248030601 0.01062156016109 
C2    C     0.20372891980920 0.56478552924203 0.01949791992449 
C3    C     0.27842358985216 0.58452657023488 0.94795907036151 
C4    C     0.06711000008672 0.70885574944001 0.08217753985118 
C5    C     0.19814235008278 0.37177330070543 0.10463932025291 
C6    C     0.28968947995678 0.77010416921017 0.86240269985698 
C7    C     0.34429649012970 0.41088752924852 0.96530024985393 
C8    C     0.06187316016167 0.51868204029926 0.16600310000113 
C9    C     0.12656587023770 0.35286024964473 0.17676620020918 
C10   C     0.36284716026429 0.78668321931125 0.79824531964444 
C11   C     0.26535643983236 0.20113727044890 0.11803244034327 
C12   C     0.33550220015337 0.22018085959635 0.05113780016535 
C13   C     0.41816925984035 0.43117772977522 0.89854105028915 
C14   C     0.42793919016299 0.61689653930638 0.81693656958100 
