data_stdin
_audit_creation_method 'critic2'
_audit_creation_date 2023-8-11
_chemical_formula_sum 'C14 H10'
_cell_formula_units_Z 8
_cell_length_a        19.1347816049
_cell_length_b         6.1454094318
_cell_length_c        16.2715592556
_cell_angle_alpha        90.0016
_cell_angle_beta        82.7194
_cell_angle_gamma        89.9996
_cell_volume          1897.963023
_space_group_crystal_system monoclinic
_space_group_IT_number 15
_space_group_name_H-M_alt 'C2/c'
_space_group_name_Hall '-C 2yc'
loop_
_symmetry_equiv_pos_site_id
_symmetry_equiv_pos_as_xyz
 1 'x,y,z'
 2 '-x,-y,-z'
 3 '-x,y,-1/2-z'
 4 'x,-y,-1/2+z'
 5 '-1/2+x,-1/2+y,z'
 6 '-1/2-x,-1/2-y,-z'
 7 '-1/2-x,-1/2+y,-1/2-z'
 8 '-1/2+x,-1/2-y,-1/2+z'
loop_
_atom_site_label
_atom_site_type_symbol
_atom_site_fract_x
_atom_site_fract_y
_atom_site_fract_z
H1    H     0.23195463014230 0.29539483925119 0.21018819983661 
H2    H     0.10356251024753 0.27219404017695 0.23214926008785 
H3    H     0.33688626992424 0.31437214062655 0.18559776021225 
H4    H     0.46425937977337 0.35096949929851 0.15420474021993 
H5    H     0.03011972009830 0.56554434991482 0.18064405981048 
H6    H     0.08862103970829 0.89036441967818 0.11043516026623 
H7    H     0.19361276016041 0.08964355056906 0.05739215004437 
H8    H     0.32327082977198 0.11857663044103 0.03004455985599 
H9    H     0.43925314974198 0.97239608008378 0.03864209016566 
H10   H     0.51754562018601 0.67990971974205 0.07973484979633 
C1    C     0.20148636976568 0.42692568970929 0.18786154008783 
C2    C     0.23614389028699 0.60617676954230 0.14642224977768 
C3    C     0.31240479001708 0.62214129025803 0.12962276982491 
C4    C     0.12860766014409 0.41303353994978 0.20023165986481 
C5    C     0.19391956997158 0.77717654930794 0.11935706029688 
C6    C     0.35813958005870 0.45896220037875 0.15293815999393 
C7    C     0.34299574995321 0.81010021022947 0.08767191990017 
C8    C     0.08732265016330 0.57968111943119 0.17182785986802 
C9    C     0.11972646999442 0.75976289956669 0.13276854991824 
C10   C     0.43061904020564 0.47925381995180 0.13510153992338 
C11   C     0.22702245019094 0.96193383939463 0.07746922976721 
C12   C     0.29850535015267 0.97793526958811 0.06241225986179 
C13   C     0.41709377013934 0.82744759968761 0.07062528976507 
C14   C     0.46055744999442 0.66450052001113 0.09358541986233 
