data_stdin
_audit_creation_method 'critic2'
_audit_creation_date 2023-8-11
_chemical_formula_sum 'C14 H10'
_cell_formula_units_Z 4
_cell_length_a        10.0590364101
_cell_length_b         6.0338177222
_cell_length_c        16.2492766000
_cell_angle_alpha        89.9990
_cell_angle_beta        90.0000
_cell_angle_gamma        89.9990
_cell_volume           986.239966
_space_group_crystal_system orthorhombic
_space_group_IT_number 33
_space_group_name_H-M_alt 'Pna2_1'
_space_group_name_Hall 'P 2c -2n'
loop_
_symmetry_equiv_pos_site_id
_symmetry_equiv_pos_as_xyz
 1 'x,y,z'
 2 '-x,-y,-1/2+z'
 3 '-1/2-x,-1/2+y,-1/2+z'
 4 '-1/2+x,-1/2-y,z'
loop_
_atom_site_label
_atom_site_type_symbol
_atom_site_fract_x
_atom_site_fract_y
_atom_site_fract_z
H1    H     0.83930729989535 0.84077349077125 0.00352727995735 
H2    H     0.99745400003562 0.76944410922657 0.89141196991596 
H3    H     0.70857339014055 0.88553486082140 0.09638627000816 
H4    H     0.57244635039731 0.94894680023978 0.21841048995836 
H5    H     0.13261622023467 0.42355093053938 0.88945786980887 
H6    H     0.11032435042643 0.15069305026990 0.00333240010317 
H7    H     0.01279507978422 0.03438281069227 0.13202892014940 
H8    H     0.86588860998364 0.10276731070565 0.25052667014213 
H9    H     0.70721241982159 0.33201667006319 0.32269175994361 
H10   H     0.57142812036551 0.67692391940423 0.33395735997211 
C1    C     0.89695964025914 0.68815136959274 0.00405367003916 
C2    C     0.88187480981064 0.53596371990380 0.06965258978022 
C3    C     0.79353177990926 0.57476028011713 0.13902297005611 
C4    C     0.98606667979060 0.64846504999677 0.94065833989575 
C5    C     0.96100300973013 0.33898496013011 0.06847957009359 
C6    C     0.71112469034820 0.76369557034122 0.14561198981513 
C7    C     0.79060588023773 0.41699924993866 0.20469922005388 
C8    C     0.06310323012216 0.45350395041320 0.93958514001241 
C9    C     0.05034881013528 0.30123492056382 0.00267916026517 
C10   C     0.63306703981339 0.79987779951822 0.21466015979695 
C11   C     0.95235624024242 0.18378383041187 0.13475738986602 
C12   C     0.87118717020780 0.22216308952299 0.20036586015914 
C13   C     0.70863932035760 0.45591509984744 0.27387075993651 
C14   C     0.63225546982839 0.64591656917821 0.27969355977837 
