data_stdin
_audit_creation_method 'critic2'
_audit_creation_date 2023-8-11
_chemical_formula_sum 'C14 H10'
_cell_formula_units_Z 4
_cell_length_a         9.4560975263
_cell_length_b         9.6435707400
_cell_length_c        10.5216031501
_cell_angle_alpha        90.0000
_cell_angle_beta        75.5430
_cell_angle_gamma        90.0000
_cell_volume           929.089510
_space_group_crystal_system monoclinic
_space_group_IT_number 14
_space_group_name_H-M_alt 'P2_1/c'
_space_group_name_Hall '-P 2ybc'
loop_
_symmetry_equiv_pos_site_id
_symmetry_equiv_pos_as_xyz
 1 'x,y,z'
 2 '-x,-y,-z'
 3 '-x,-1/2+y,-1/2-z'
 4 'x,-1/2-y,-1/2+z'
loop_
_atom_site_label
_atom_site_type_symbol
_atom_site_fract_x
_atom_site_fract_y
_atom_site_fract_z
H1    H     0.12842272953412 0.41064942020577 0.18625579027331 
H2    H     0.38967828959418 0.39310518971311 0.08900720963487 
H3    H     0.91365372986762 0.43572640996417 0.26172887041312 
H4    H     0.65501728995903 0.46475992027292 0.36689211015673 
H5    H     0.56398522977367 0.55676000968977 0.15469264040634 
H6    H     0.46905932023205 0.74062142036434 0.31862423954078 
H7    H     0.26651724977325 0.85365155990101 0.47410977011209 
H8    H     0.00348890956624 0.87303832959907 0.57918899008276 
H9    H     0.75499995009322 0.79512859953455 0.60618901973700 
H10   H     0.57144267035756 0.64408113045305 0.54135818986545 
C1    C     0.20053007979749 0.48529426019638 0.21539863036182 
C2    C     0.14282992030993 0.58900908019642 0.30870532989130 
C3    C     0.98758620980923 0.60244955010549 0.36884286983611 
C4    C     0.34923540980642 0.47450902049346 0.16044355036419 
C5    C     0.24255880991506 0.68237119015645 0.34628368008500 
C6    C     0.88118261999316 0.51679228014074 0.33507796997605 
C7    C     0.93918560043425 0.70598152017143 0.46714547959627 
C8    C     0.44705011027515 0.56693226985573 0.19716858964746 
C9    C     0.39403658953319 0.66930817023388 0.28868883035977 
C10   C     0.73407923968191 0.53270539031669 0.39491284033199 
C11   C     0.18873178985353 0.78542682996289 0.44429731037108 
C12   C     0.04324083057021 0.79600139969021 0.50297360978301 
C13   C     0.78864939057556 0.71809967967901 0.52875185975815 
C14   C     0.68697373965980 0.63367461964835 0.49290310048522 
