data_stdin
_audit_creation_method 'critic2'
_audit_creation_date 2023-8-11
_chemical_formula_sum 'C14 H10'
_cell_formula_units_Z 8
_cell_length_a        19.5247461433
_cell_length_b        19.5246224938
_cell_length_c         5.3572048026
_cell_angle_alpha        90.0010
_cell_angle_beta        90.0012
_cell_angle_gamma        89.9978
_cell_volume          2042.237707
_space_group_crystal_system tetragonal
_space_group_IT_number 82
_space_group_name_H-M_alt 'I-4'
_space_group_name_Hall 'I -4'
loop_
_symmetry_equiv_pos_site_id
_symmetry_equiv_pos_as_xyz
 1 'x,y,z'
 2 '-1/2-y,-1/2+x,-1/2-z'
 3 '-1/2-x,-1/2-y,-1/2+z'
 4 'y,-x,-z'
 5 '-1/2+x,-1/2+y,-1/2+z'
 6 '-y,x,-z'
 7 '-x,-y,z'
 8 '-1/2+y,-1/2-x,-1/2-z'
loop_
_atom_site_label
_atom_site_type_symbol
_atom_site_fract_x
_atom_site_fract_y
_atom_site_fract_z
H1    H     0.31118961007105 0.31013201019151 0.94512433985528 
H2    H     0.36623207021846 0.42205671002367 0.91657310062210 
H3    H     0.27482568015677 0.21449411976800 0.95540885022176 
H4    H     0.23109518983523 0.09767611024987 0.98265190921220 
H5    H     0.45913207993859 0.45450958011301 0.21495263005792 
H6    H     0.49239104999165 0.37383711981843 0.55306473931954 
H7    H     0.47865418989301 0.26626264019740 0.77223770062602 
H8    H     0.42793675004105 0.15030784010450 0.80215733950837 
H9    H     0.35462901990447 0.06107459996505 0.63626932940115 
H10   H     0.27124640992764 0.01899946985111 0.32005408986790 
C1    C     0.35070026000626 0.32302241005921 0.07998365949701 
C2    C     0.37004500004442 0.27526681024907 0.26526486945711 
C3    C     0.34132868009774 0.20672377013876 0.27955230954623 
C4    C     0.38177302000796 0.38662817980603 0.06296181925768 
C5    C     0.42109142982491 0.29519217995804 0.44198228027823 
C6    C     0.29290170019511 0.18172343019522 0.10556864950044 
C7    C     0.36377740992349 0.16177811025243 0.47359843060736 
C8    C     0.43384837986341 0.40495726005163 0.23186639970685 
C9    C     0.45250802017910 0.36014305986614 0.42010638941893 
C10   C     0.26816813000595 0.11534331017812 0.12023532011602 
C11   C     0.44081884980521 0.24899215007958 0.63673596044972 
C12   C     0.41311931980144 0.18505643001564 0.65238035980121 
C13   C     0.33732484986689 0.09443317996320 0.48578292092206 
C14   C     0.29063722980319 0.07119694987148 0.31116031053148 
