data_stdin
_audit_creation_method 'critic2'
_audit_creation_date 2023-8-11
_chemical_formula_sum 'C14 H10'
_cell_formula_units_Z 2
_cell_length_a         4.8369505250
_cell_length_b        11.1351240900
_cell_length_c         9.0471864322
_cell_angle_alpha        90.0000
_cell_angle_beta        82.8998
_cell_angle_gamma        90.0008
_cell_volume           483.545099
_space_group_crystal_system monoclinic
_space_group_IT_number 4
_space_group_name_H-M_alt 'P2_1'
_space_group_name_Hall 'P 2yb'
loop_
_symmetry_equiv_pos_site_id
_symmetry_equiv_pos_as_xyz
 1 'x,y,z'
 2 '-x,-1/2+y,-z'
loop_
_atom_site_label
_atom_site_type_symbol
_atom_site_fract_x
_atom_site_fract_y
_atom_site_fract_z
H1    H     0.53781160063998 0.00249728969707 0.25966368054020 
H2    H     0.70306235958668 0.96722398035555 0.50073301022225 
H3    H     0.41488967026079 0.03286203030056 0.06081303025216 
H4    H     0.28166442000994 0.07236499041173 0.81483737009327 
H5    H     0.06340453010819 0.10046141983220 0.58898041032926 
H6    H     0.24764598921715 0.27287377007092 0.43277149037246 
H7    H     0.25223183025917 0.39743289959520 0.20983430996804 
H8    H     0.09991074946428 0.43461591023613 0.96448125017264 
H9    H     0.84321270910830 0.37456761988563 0.76240372991085 
H10   H     0.49716318911425 0.24298478017014 0.66065782996435 
C1    C     0.69317522922900 0.06265093956605 0.29567678010420 
C2    C     0.79428160903088 0.15983441042868 0.20405313002376 
C3    C     0.70529132074445 0.18195770011087 0.05892219960110 
C4    C     0.78755644958476 0.04196402986717 0.43185931008537 
C5    C     0.99497370038856 0.23803689007351 0.25694779964212 
C6    C     0.50999960968649 0.10843736964171 0.99770493018171 
C7    C     0.82182688942777 0.28105694968958 0.97255466035220 
C8    C     0.98915983979160 0.11757977982945 0.48222687029931 
C9    C     0.08977998023298 0.21415168981248 0.39572520013318 
C10   C     0.43470301980035 0.13044099958040 0.85752491038221 
C11   C     0.09989374912006 0.33832157020240 0.16801244972339 
C12   C     0.01670766928352 0.35878819999730 0.03168393007197 
C13   C     0.74464980921056 0.30086922993233 0.82874497962664 
C14   C     0.55350637043402 0.22711656960723 0.77181491972554 
