data_stdin
_audit_creation_method 'critic2'
_audit_creation_date 2023-8-11
_chemical_formula_sum 'C14 H10'
_cell_formula_units_Z 4
_cell_length_a         5.7907027624
_cell_length_b         8.5799643284
_cell_length_c        20.1697852478
_cell_angle_alpha        89.9976
_cell_angle_beta        72.4719
_cell_angle_gamma        89.9979
_cell_volume           955.587389
_space_group_crystal_system monoclinic
_space_group_IT_number 14
_space_group_name_H-M_alt 'P2_1/c'
_space_group_name_Hall '-P 2ybc'
loop_
_symmetry_equiv_pos_site_id
_symmetry_equiv_pos_as_xyz
 1 'x,y,z'
 2 '-x,-y,-z'
 3 '-x,-1/2+y,-1/2-z'
 4 'x,-1/2-y,-1/2+z'
loop_
_atom_site_label
_atom_site_type_symbol
_atom_site_fract_x
_atom_site_fract_y
_atom_site_fract_z
H1    H     0.41547973996255 0.98353179958176 0.19483339005566 
H2    H     0.60923411953049 0.98207327970976 0.06944395004308 
H3    H     0.28092533998348 0.99869072986938 0.29872155992475 
H4    H     0.12312071032837 0.00798563057265 0.42525662005379 
H5    H     0.01818748029188 0.86011007986486 0.01864561976834 
H6    H     0.22573629047036 0.73948864005998 0.09765882985351 
H7    H     0.22970617012902 0.65891012998950 0.21147981016764 
H8    H     0.04670705076599 0.65673124034765 0.33888833990457 
H9    H     0.73340378927662 0.74149175968276 0.44245291010094 
H10   H     0.34775474951586 0.88092504944890 0.49871060011798 
C1    C     0.59226990931543 0.92909000947192 0.17454230012811 
C2    C     0.70642674959188 0.86138110055713 0.22041093993233 
C3    C     0.60179109067338 0.86422252035734 0.29558566985151 
C4    C     0.70194572959953 0.92817894984707 0.10322056008101 
C5    C     0.93768507016168 0.78997562994428 0.19113403015501 
C6    C     0.38181877939614 0.94104243958549 0.32917621008823 
C7    C     0.72924721011471 0.79079417941770 0.33778669990938 
C8    C     0.93206796012563 0.86031852043606 0.07469665979198 
C9    C     0.04742819997778 0.79254746947593 0.11834003019442 
C10   C     0.29162581995567 0.94627995050650 0.40101700987716 
C11   C     0.05598256992338 0.71505125961956 0.23537352020184 
C12   C     0.95477088969014 0.71405453056817 0.30578501990486 
C13   C     0.63293151011121 0.79704811003593 0.41104076975359 
C14   C     0.41767700007007 0.87400055042344 0.44233772025460 
