data_stdin
_audit_creation_method 'critic2'
_audit_creation_date 2023-8-11
_chemical_formula_sum 'C14 H10'
_cell_formula_units_Z 4
_cell_length_a        10.0561009501
_cell_length_b         6.0360095803
_cell_length_c        16.2479989503
_cell_angle_alpha        90.0002
_cell_angle_beta        90.0003
_cell_angle_gamma        89.9996
_cell_volume           986.232766
_space_group_crystal_system orthorhombic
_space_group_IT_number 33
_space_group_name_H-M_alt 'Pna2_1'
_space_group_name_Hall 'P 2c -2n'
loop_
_symmetry_equiv_pos_site_id
_symmetry_equiv_pos_as_xyz
 1 'x,y,z'
 2 '-x,-y,-1/2+z'
 3 '-1/2-x,-1/2+y,-1/2+z'
 4 '-1/2+x,-1/2-y,z'
loop_
_atom_site_label
_atom_site_type_symbol
_atom_site_fract_x
_atom_site_fract_y
_atom_site_fract_z
H1    H     0.29122317044101 0.38558917959327 0.95173724983055 
H2    H     0.42743232021416 0.44914765047469 0.82974442000287 
H3    H     0.16039988044011 0.34062866979591 0.04457103988352 
H4    H     0.00224983007546 0.26899340045989 0.15670193018958 
H5    H     0.42864468966628 0.17720824042837 0.71417363014951 
H6    H     0.29297432033199 0.83228546920575 0.72540288003067 
H7    H     0.13420394004038 0.60300652062290 0.79749797024919 
H8    H     0.98730295967304 0.53434944975015 0.91596292012176 
H9    H     0.88962071020848 0.65044454957741 0.04467931015433 
H10   H     0.86715192996945 0.92317044931559 0.15858599029837 
C1    C     0.28872301004670 0.26380259934153 0.90249816015391 
C2    C     0.20633629980751 0.07486310010064 0.90904337026481 
C3    C     0.11795038973727 0.03592715072784 0.97840395971650 
C4    C     0.36684441966265 0.30006913013458 0.83346821026037 
C5    C     0.20934899034674 0.91721685039559 0.84335119987368 
C6    C     0.10278984963633 0.18800856958335 0.04402726004438 
C7    C     0.03891667955848 0.83892339968006 0.97956094009205 
C8    C     0.36777614972675 0.14617677943701 0.76842804018581 
C9    C     0.29142612959585 0.95617079953230 0.77421371996866 
C10   C     0.01366582001329 0.14817288982852 0.10741277987384 
C11   C     0.12884428982571 0.72233615980887 0.84766439973842 
C12   C     0.04765072995748 0.68381678966525 0.91326912011284 
C13   C     0.94953925008168 0.80100806061867 0.04535863993304 
C14   C     0.93669013035808 0.95317820960363 0.10846423977345 
