data_stdin
_audit_creation_method 'critic2'
_audit_creation_date 2023-8-11
_chemical_formula_sum 'C14 H10'
_cell_formula_units_Z 4
_cell_length_a         9.3511721710
_cell_length_b        20.9699853417
_cell_length_c         4.8380318520
_cell_angle_alpha        89.9984
_cell_angle_beta        89.9991
_cell_angle_gamma        90.0001
_cell_volume           948.708743
_space_group_crystal_system orthorhombic
_space_group_IT_number 33
_space_group_name_H-M_alt 'Pna2_1'
_space_group_name_Hall 'P 2c -2n'
loop_
_symmetry_equiv_pos_site_id
_symmetry_equiv_pos_as_xyz
 1 'x,y,z'
 2 '-x,-y,-1/2+z'
 3 '-1/2-x,-1/2+y,-1/2+z'
 4 '-1/2+x,-1/2-y,z'
loop_
_atom_site_label
_atom_site_type_symbol
_atom_site_fract_x
_atom_site_fract_y
_atom_site_fract_z
H1    H     0.00286932973131 0.70067132008580 0.98079660966208 
H2    H     0.78100856044405 0.67565251985796 0.22112175953675 
H3    H     0.18413782967182 0.71534667006118 0.77455766929250 
H4    H     0.41308949964681 0.73507264017141 0.54279328004736 
H5    H     0.77423013041882 0.58838377007470 0.57739188035199 
H6    H     0.99562762962019 0.52932528018013 0.68894562071980 
H7    H     0.24672882049918 0.50805364986198 0.61817413003244 
H8    H     0.47546359978694 0.52984927002209 0.37686810977451 
H9    H     0.61342776047685 0.59003537980506 0.03906428035532 
H10   H     0.63017347041357 0.67318160983659 0.67616650006107 
C1    C     0.00365769956149 0.66275129987244 0.13380067071358 
C2    C     0.13096205009868 0.62876122019434 0.18911082911952 
C3    C     0.26462134998092 0.64144414991691 0.04655977050149 
C4    C     0.87736682993244 0.64873441008022 0.27070644957341 
C5    C     0.12675072039950 0.57993491991781 0.39468622100229 
C6    C     0.27749974005271 0.68807082002477 0.83707528989251 
C7    C     0.38853549953710 0.60513768984702 0.11756916928294 
C8    C     0.87340825045412 0.59998108017530 0.47065452026225 
C9    C     0.99688441027135 0.56666790011727 0.53281534934564 
C10   C     0.40645991996561 0.69925185979154 0.70527077927346 
C11   C     0.25351565983679 0.54453065979389 0.45818458005681 
C12   C     0.37917654991529 0.55662848980911 0.32519986991105 
C13   C     0.51943731027330 0.61777140982229 0.98186726008648 
C14   C     0.52879145995524 0.66412428022259 0.77950692048546 
