data_stdin
_audit_creation_method 'critic2'
_audit_creation_date 2023-8-11
_chemical_formula_sum 'C14 H10'
_cell_formula_units_Z 8
_cell_length_a        37.8345481267
_cell_length_b         5.9997510806
_cell_length_c         8.3475746667
_cell_angle_alpha        89.9996
_cell_angle_beta        85.5917
_cell_angle_gamma        90.0007
_cell_volume          1889.275824
_space_group_crystal_system monoclinic
_space_group_IT_number 15
_space_group_name_H-M_alt 'C2/c'
_space_group_name_Hall '-C 2yc'
loop_
_symmetry_equiv_pos_site_id
_symmetry_equiv_pos_as_xyz
 1 'x,y,z'
 2 '-1/2-x,-1/2-y,-z'
 3 '-1/2-x,-1/2+y,-1/2-z'
 4 'x,-y,-1/2+z'
 5 '-1/2+x,-1/2+y,z'
 6 '-x,-y,-z'
 7 '-x,y,-1/2-z'
 8 '-1/2+x,-1/2-y,-1/2+z'
loop_
_atom_site_label
_atom_site_type_symbol
_atom_site_fract_x
_atom_site_fract_y
_atom_site_fract_z
H1    H     0.15753253990998 0.63596492941140 0.54507991966588 
H2    H     0.22121972996728 0.60372923026845 0.47763814976001 
H3    H     0.10484490994430 0.64711033059239 0.60350090996693 
H4    H     0.04137084009083 0.63967085916875 0.68136553986322 
H5    H     0.24623130009302 0.27455720034098 0.32266525007891 
H6    H     0.20545745006777 0.98123703025207 0.23473670998446 
H7    H     0.14716366988927 0.82577203067784 0.22580362988531 
H8    H     0.08276818008511 0.83665996075303 0.29973929030875 
H9    H     0.03168901999688 0.01121363943804 0.43810693039368 
H10   H     0.00383763988857 0.32314746047433 0.59994654038509 
C1    C     0.16748913994139 0.49195927972124 0.47669774972397 
C2    C     0.14379649002714 0.32540383963435 0.43089392038504 
C3    C     0.10587176000581 0.33189738001394 0.47486210958949 
C4    C     0.20367734986707 0.47408401934816 0.43840803050438 
C5    C     0.15824393993781 0.13855544967574 0.34208669948354 
C6    C     0.08931959994454 0.50665718012383 0.56605070973159 
C7    C     0.08428595006617 0.15110496080356 0.42825459047825 
C8    C     0.21776325987932 0.28934708944977 0.35113545052460 
C9    C     0.19522602000994 0.12511573923003 0.30319252051791 
C10   C     0.05325424006842 0.50318250057940 0.61015260011485 
C11   C     0.13540420988094 0.96469671989085 0.29457159022992 
C12   C     0.09984759999351 0.97084429918454 0.33557423987409 
C13   C     0.04755976002804 0.15110692009495 0.47496725001722 
C14   C     0.03215712005224 0.32391815040101 0.56498574971787 
