data_stdin
_audit_creation_method 'critic2'
_audit_creation_date 2023-8-11
_chemical_formula_sum 'C14 H10'
_cell_formula_units_Z 4
_cell_length_a        12.8472543900
_cell_length_b         9.7222477800
_cell_length_c         7.6048493400
_cell_angle_alpha        90.0000
_cell_angle_beta        90.0000
_cell_angle_gamma        90.0000
_cell_volume           949.877550
_space_group_crystal_system orthorhombic
_space_group_IT_number 29
_space_group_name_H-M_alt 'Pca2_1'
_space_group_name_Hall 'P 2c -2ac'
loop_
_symmetry_equiv_pos_site_id
_symmetry_equiv_pos_as_xyz
 1 'x,y,z'
 2 '-x,-y,-1/2+z'
 3 '-1/2-x,y,-1/2+z'
 4 '-1/2+x,-y,z'
loop_
_atom_site_label
_atom_site_type_symbol
_atom_site_fract_x
_atom_site_fract_y
_atom_site_fract_z
H1    H     0.19897252961660 0.98978844958473 0.95243768000260 
H2    H     0.23211241001377 0.22603809966063 0.04370487954790 
H3    H     0.16841270020090 0.78695953964662 0.91723075951789 
H4    H     0.14877406977815 0.54767145025440 0.82425794939532 
H5    H     0.39901216987852 0.28992644954766 0.19210458963268 
H6    H     0.53278325986788 0.11074031038479 0.24544183984631 
H7    H     0.59171965016048 0.87465422019909 0.22725282945251 
H8    H     0.56996906972131 0.63698808024858 0.11378109943028 
H9    H     0.46681498968502 0.46326008999926 0.96520024025346 
H10   H     0.29806824022231 0.38462688038279 0.84178660014157 
C1    C     0.27189778979887 0.01337675999523 0.01857514024303 
C2    C     0.34650516967663 0.90904386989940 0.04757365056755 
C3    C     0.33059819994845 0.76710327987445 0.99377014018131 
C4    C     0.29073855980749 0.14788800018751 0.06966500963044 
C5    C     0.44225791962370 0.94629628985383 0.13084738030550 
C6    C     0.23487009991634 0.71813753003887 0.92735712060706 
C7    C     0.41456283034760 0.67161695968833 0.01157721023195 
C8    C     0.38471142973427 0.18395684951927 0.15261558944749 
C9    C     0.45931760035947 0.08420368033312 0.18260359937885 
C10   C     0.22324301033983 0.58249089032341 0.87568511952955 
C11   C     0.52101994009923 0.84431815968117 0.15838656963715 
C12   C     0.50886463967873 0.71362542025442 0.09644883934538 
C13   C     0.40168596971237 0.53458384970584 0.95304723024152 
C14   C     0.30747440038051 0.49053842962723 0.88535687026561 
