data_stdin
_audit_creation_method 'critic2'
_audit_creation_date 2023-8-11
_chemical_formula_sum 'C14 H10'
_cell_formula_units_Z 4
_cell_length_a        14.4311082000
_cell_length_b        11.8484064000
_cell_length_c         5.6409671300
_cell_angle_alpha        90.0000
_cell_angle_beta        89.9997
_cell_angle_gamma        90.0000
_cell_volume           964.524345
_space_group_crystal_system orthorhombic
_space_group_IT_number 19
_space_group_name_H-M_alt 'P2_12_12_1'
_space_group_name_Hall 'P 2ac 2ab'
loop_
_symmetry_equiv_pos_site_id
_symmetry_equiv_pos_as_xyz
 1 'x,y,z'
 2 '-1/2+x,-1/2-y,-z'
 3 '-1/2-x,-y,-1/2+z'
 4 '-x,-1/2+y,-1/2-z'
loop_
_atom_site_label
_atom_site_type_symbol
_atom_site_fract_x
_atom_site_fract_y
_atom_site_fract_z
H1    H     0.13757571008786 0.73546829029902 0.64707894945504 
H2    H     0.27128681011931 0.78753168980902 0.40096731915386 
H3    H     0.01896038995267 0.70155191030880 0.81821628021420 
H4    H     0.88145996990595 0.64351475973141 0.03992987958426 
H5    H     0.30675583982488 0.67935799976043 0.03116325084526 
H6    H     0.20899023993734 0.51632789985001 0.91982799913203 
H7    H     0.08536470996252 0.38373980964251 0.00655383047982 
H8    H     0.95012746025840 0.32659531998521 0.24705230996437 
H9    H     0.83974624031348 0.36508948028927 0.55986893993667 
H10   H     0.78864326003978 0.47688332964790 0.91109059000926 
C1    C     0.15226950969193 0.68672668993494 0.48842563996247 
C2    C     0.09438688012988 0.59503395013581 0.42703326081246 
C3    C     0.01266345991139 0.56431021017131 0.56299425049000 
C4    C     0.22761669022661 0.71665324009344 0.34963035923782 
C5    C     0.11767247979867 0.53082945989377 0.22113257017949 
C6    C     0.98111393995319 0.62710514975230 0.76043500984358 
C7    C     0.96080895982258 0.46703363010596 0.49340453074284 
C8    C     0.24768251018026 0.65617051995334 0.14101730924347 
C9    C     0.19342611032854 0.56455274988849 0.07890268023526 
C10   C     0.90260170012280 0.59529812018385 0.88470909003824 
C11   C     0.06500162026679 0.43239914994855 0.16194447018290 
C12   C     0.99033451994300 0.40102339003667 0.29447906923205 
C13   C     0.87966690980637 0.43779158998898 0.62026059039416 
C14   C     0.85087765983314 0.50043433030449 0.81372501993415 
