data_stdin
_audit_creation_method 'critic2'
_audit_creation_date 2023-8-11
_chemical_formula_sum 'C14 H10'
_cell_formula_units_Z 4
_cell_length_a         5.7291110124
_cell_length_b         9.6904283503
_cell_length_c        17.6032047001
_cell_angle_alpha        90.0005
_cell_angle_beta        90.0018
_cell_angle_gamma        90.0001
_cell_volume           977.286617
_space_group_crystal_system orthorhombic
_space_group_IT_number 19
_space_group_name_H-M_alt 'P2_12_12_1'
_space_group_name_Hall 'P 2ac 2ab'
loop_
_symmetry_equiv_pos_site_id
_symmetry_equiv_pos_as_xyz
 1 'x,y,z'
 2 '-1/2-x,-y,-1/2+z'
 3 '-1/2+x,-1/2-y,-z'
 4 '-x,-1/2+y,-1/2-z'
loop_
_atom_site_label
_atom_site_type_symbol
_atom_site_fract_x
_atom_site_fract_y
_atom_site_fract_z
H1    H     0.72822929008115 0.16706267958158 0.99378977005833 
H2    H     0.73285697018861 0.00719221001107 0.10106400016699 
H3    H     0.73082878987386 0.29510788949682 0.90531097978685 
H4    H     0.74598808983791 0.44839665955190 0.79548554992255 
H5    H     0.05580354988117 0.83580969955287 0.11492938012030 
H6    H     0.37397774997192 0.82758906951646 0.01929063024926 
H7    H     0.55782917077570 0.91497586039577 0.90433557022076 
H8    H     0.56504319973739 0.07614144023448 0.79553785971599 
H9    H     0.39589903034697 0.26606415963221 0.72489985974066 
H10   H     0.07388374978514 0.43508230009817 0.70308603022585 
C1    C     0.87020873941046 0.09326933998061 0.99823015018181 
C2    C     0.04836769010440 0.09126836039654 0.94265949993662 
C3    C     0.05186850009233 0.18565497000352 0.87845175003020 
C4    C     0.87229530922205 0.00266342016447 0.05911821002850 
C5    C     0.23273946023365 0.99296076965497 0.95088762996995 
C6    C     0.87619954981767 0.28558121983604 0.86599631979409 
C7    C     0.24107922988554 0.17880345008377 0.82570274971789 
C8    C     0.05413123920519 0.90612537950206 0.06674734013660 
C9    C     0.23172284001346 0.90152210977713 0.01354899022371 
C10   C     0.88416446009529 0.37295486014840 0.80378743028351 
C11   C     0.41774699977922 0.98947104956338 0.89618237977924 
C12   C     0.42211501006481 0.07879199994800 0.83632575004385 
C13   C     0.24701799043059 0.27076299019667 0.76333536979854 
C14   C     0.07023627008135 0.36570112985538 0.75175176022758 
