data_stdin
_audit_creation_method 'critic2'
_audit_creation_date 2023-8-11
_chemical_formula_sum 'C14 H10'
_cell_formula_units_Z 8
_cell_length_a        13.8356699517
_cell_length_b         3.9632436340
_cell_length_c        36.4984464908
_cell_angle_alpha        89.9985
_cell_angle_beta        90.0072
_cell_angle_gamma        89.9995
_cell_volume          2001.360574
_space_group_crystal_system orthorhombic
_space_group_IT_number 20
_space_group_name_H-M_alt 'C222_1'
_space_group_name_Hall 'C 2c 2'
loop_
_symmetry_equiv_pos_site_id
_symmetry_equiv_pos_as_xyz
 1 'x,y,z'
 2 '-1/2-x,-1/2-y,-1/2+z'
 3 '-1/2-x,-1/2+y,-1/2-z'
 4 'x,-y,-z'
 5 '-1/2+x,-1/2+y,z'
 6 '-x,-y,-1/2+z'
 7 '-x,y,-1/2-z'
 8 '-1/2+x,-1/2-y,-z'
loop_
_atom_site_label
_atom_site_type_symbol
_atom_site_fract_x
_atom_site_fract_y
_atom_site_fract_z
H1    H     0.30332001965401 0.60431260948459 0.84422679993062 
H2    H     0.29672302997481 0.30906545040103 0.78519380009273 
H3    H     0.30420311018877 0.84603261039588 0.89200247991597 
H4    H     0.30029084971822 0.13187087889284 0.95145089993057 
H5    H     0.13900497970368 0.18266261917462 0.75577586008622 
H6    H     0.98620328031106 0.34839604879775 0.78692208987445 
H7    H     0.90136105972333 0.59598381035079 0.83828238011107 
H8    H     0.90237522993630 0.88287769981228 0.89839534997233 
H9    H     0.98929773012327 0.13539249880080 0.94921199992928 
H10   H     0.14290299029372 0.28032123049097 0.98062572990620 
C1    C     0.23328006018500 0.55214721046032 0.83199116007493 
C2    C     0.14790350015692 0.64823652986615 0.85046572007708 
C3    C     0.14851920998279 0.81840431912850 0.88568174997877 
C4    C     0.23001034969341 0.38751001945729 0.79856079995372 
C5    C     0.05753095005884 0.57102692963944 0.83358693001189 
C6    C     0.23461124016268 0.90495079092852 0.90423260996520 
C7    C     0.05874656008841 0.90279226896927 0.90263146012447 
C8    C     0.14073903990915 0.31512045937502 0.78187244001333 
C9    C     0.05598642984628 0.40589521959911 0.79927437999869 
C10   C     0.23268581002979 0.06709396021736 0.93782332988060 
C11   C     0.96941243015302 0.65925121100138 0.85165646007806 
C12   C     0.96998301981102 0.81819982957246 0.88478771991481 
C13   C     0.05856839966995 0.06943218980998 0.93687943991922 
C14   C     0.14402435965176 0.15087088874166 0.95435736001642 
