data_stdin
_audit_creation_method 'critic2'
_audit_creation_date 2023-8-11
_chemical_formula_sum 'C14 H10'
_cell_formula_units_Z 8
_cell_length_a        18.2916047302
_cell_length_b        19.7727094928
_cell_length_c         5.4002431315
_cell_angle_alpha        90.0004
_cell_angle_beta        90.0002
_cell_angle_gamma        90.0000
_cell_volume          1953.130701
_space_group_crystal_system orthorhombic
_space_group_IT_number 41
_space_group_name_H-M_alt 'Aea2'
_space_group_name_Hall 'A 2 -2ac'
loop_
_symmetry_equiv_pos_site_id
_symmetry_equiv_pos_as_xyz
 1 'x,y,z'
 2 '-x,-y,z'
 3 '-1/2-x,y,-1/2+z'
 4 '-1/2+x,-y,-1/2+z'
 5 'x,-1/2+y,-1/2+z'
 6 '-x,-1/2-y,-1/2+z'
 7 '-1/2-x,-1/2+y,z'
 8 '-1/2+x,-1/2-y,z'
loop_
_atom_site_label
_atom_site_type_symbol
_atom_site_fract_x
_atom_site_fract_y
_atom_site_fract_z
H1    H     0.21102896977861 0.60874537014417 0.00119505914511 
H2    H     0.20973962015352 0.48599775024239 0.99653389088519 
H3    H     0.21005193983263 0.71019616015906 0.99793781018455 
H4    H     0.20920129995419 0.83286240024167 0.97602296049771 
H5    H     0.13779505986034 0.42294465975016 0.67419973955972 
H6    H     0.06909496018787 0.48702379015720 0.35599240966976 
H7    H     0.03114076020913 0.59358244996429 0.16879473047187 
H8    H     0.03269990974359 0.71818468990915 0.15924694973501 
H9    H     0.07195525011723 0.82535324984248 0.32656554090213 
H10   H     0.13946972014637 0.89277578013952 0.64267020966740 
C1    C     0.17956924019851 0.58327974024071 0.85825712954475 
C2    C     0.14097394974525 0.62119332000204 0.67892177986434 
C3    C     0.14149952992026 0.69466676997022 0.67355664928576 
C4    C     0.17864093004938 0.51324066025215 0.85658135057403 
C5    C     0.10043541015319 0.58523045018106 0.49486938026234 
C6    C     0.17956034998001 0.73423394012453 0.84940387961287 
C7    C     0.10221348023669 0.72894308981840 0.48248573924590 
C8    C     0.13849149022402 0.47800299001538 0.67538276979371 
C9    C     0.10013008991237 0.51373012019057 0.49768931007609 
C10   C     0.17888926996947 0.80420480992725 0.83794498081792 
C11   C     0.06118323976672 0.62190560981941 0.30887831912689 
C12   C     0.06223690981801 0.69082111977136 0.30253542085466 
C13   C     0.10258402017712 0.80043645986038 0.47391591058544 
C14   C     0.14004113977484 0.83775050984004 0.64943990002683 
