data_stdin
_audit_creation_method 'critic2'
_audit_creation_date 2023-8-11
_chemical_formula_sum 'C14 H10'
_cell_formula_units_Z 4
_cell_length_a         6.9276247248
_cell_length_b        11.8494867802
_cell_length_c        12.2411721113
_cell_angle_alpha        89.9994
_cell_angle_beta        70.6190
_cell_angle_gamma        89.9990
_cell_volume           947.920066
_space_group_crystal_system monoclinic
_space_group_IT_number 14
_space_group_name_H-M_alt 'P2_1/c'
_space_group_name_Hall '-P 2ybc'
loop_
_symmetry_equiv_pos_site_id
_symmetry_equiv_pos_as_xyz
 1 'x,y,z'
 2 '-x,-y,-z'
 3 '-x,-1/2+y,-1/2-z'
 4 'x,-1/2-y,-1/2+z'
loop_
_atom_site_label
_atom_site_type_symbol
_atom_site_fract_x
_atom_site_fract_y
_atom_site_fract_z
H1    H     0.00738696973953 0.38269754009017 0.72259584982717 
H2    H     0.87541822070199 0.51558154990163 0.88373455960051 
H3    H     0.12182317037587 0.27497610029190 0.59317822000573 
H4    H     0.27291710963747 0.14969450967290 0.42657570971222 
H5    H     0.11564615949870 0.64110071978844 0.94150194023727 
H6    H     0.48617212067584 0.63411106011850 0.83331526962621 
H7    H     0.77651564024569 0.55576244978390 0.67984490020524 
H8    H     0.91867000004756 0.42180670031070 0.51750082039667 
H9    H     0.87205553966668 0.28001381020422 0.38627066961076 
H10   H     0.64666527944946 0.15211048011872 0.32132630995314 
C1    C     0.11442931993054 0.43688161982337 0.74575310970462 
C2    C     0.32596251050023 0.42980445970501 0.68294178002420 
C3    C     0.40934723977237 0.35208093004748 0.58710052035546 
C4    C     0.03912977028489 0.51217900983514 0.83656260017566 
C5    C     0.46127602045487 0.50332661985620 0.71534750013241 
C6    C     0.28626094931354 0.27722424032557 0.54882216008823 
C7    C     0.62489414057020 0.35126791038022 0.52744924993803 
C8    C     0.17371793005494 0.58337123002661 0.86885435009682 
C9    C     0.38141226045684 0.57890932979715 0.80893216983472 
C10   C     0.37055562008763 0.20620320995909 0.45521161019118 
C11   C     0.67644431078699 0.49890174031700 0.65342466956170 
C12   C     0.75473294929199 0.42528674037008 0.56395781031501 
C13   C     0.70754654961249 0.27812300978433 0.43204571960347 
C14   C     0.58283535923593 0.20690918983144 0.39592251010998 
