data_stdin
_audit_creation_method 'critic2'
_audit_creation_date 2023-8-11
_chemical_formula_sum 'C14 H10'
_cell_formula_units_Z 4
_cell_length_a        16.6045001800
_cell_length_b         4.0586166122
_cell_length_c        14.8545012906
_cell_angle_alpha        90.0094
_cell_angle_beta        90.0415
_cell_angle_gamma        99.3151
_cell_volume           987.862786
_space_group_crystal_system triclinic
_space_group_IT_number 1
_space_group_name_H-M_alt 'P1'
_space_group_name_Hall 'P 1'
loop_
_symmetry_equiv_pos_site_id
_symmetry_equiv_pos_as_xyz
 1 'x,y,z'
loop_
_atom_site_label
_atom_site_type_symbol
_atom_site_fract_x
_atom_site_fract_y
_atom_site_fract_z
H1    H     0.57901625975524 0.73541576984083 0.98416091018976 
H2    H     0.42113398025545 0.26519302969520 0.48415775010128 
H3    H     0.92094573003521 0.76493230945847 0.48415390030634 
H4    H     0.07903886977588 0.23537877096231 0.98388453005416 
H5    H     0.68328757980248 0.95604787942379 0.09563611009022 
H6    H     0.31694726979678 0.04469168016377 0.59551362020648 
H7    H     0.81680090002447 0.54498202066711 0.59555841005211 
H8    H     0.18321996007624 0.45579072091278 0.09544104021802 
H9    H     0.49824834011361 0.57439790058392 0.88785740975993 
H10   H     0.50183662013672 0.42598365052444 0.38787453013553 
H11   H     0.00162339991990 0.92505478006514 0.38773895016594 
H12   H     0.99832550981496 0.07448914108103 0.88745162009679 
H13   H     0.40245621988111 0.36356216095636 0.76800099013848 
H14   H     0.59751874975149 0.63634529997065 0.26803219013821 
H15   H     0.09727097025400 0.13475376939377 0.26774862018365 
H16   H     0.90261187971195 0.86367371024428 0.76747179989142 
H17   H     0.82804638016162 0.89520243026921 0.07312349966799 
H18   H     0.17216526019133 0.10526880050447 0.57287945005333 
H19   H     0.67203544990326 0.60642851970853 0.57303045001830 
H20   H     0.32797566978035 0.39410539099031 0.07314800995638 
H21   H     0.86766107006210 0.59106873895052 0.93844125979159 
H22   H     0.13244398027316 0.40920601938915 0.43815531991540 
H23   H     0.63233527024897 0.91012332905728 0.43823337027325 
H24   H     0.36765782013061 0.09025846975008 0.93841710975191 
H25   H     0.83260608992529 0.28979749056743 0.79983465000233 
H26   H     0.16738828974803 0.71029064009095 0.29959644013677 
H27   H     0.66731409031366 0.21163399066998 0.29980991016274 
H28   H     0.33268195014356 0.78896851957911 0.79987007011677 
H29   H     0.73208898986130 0.07446285952767 0.68256087014119 
H30   H     0.26783253995625 0.92552308965483 0.18240493001801 
H31   H     0.76773371994687 0.42566050061875 0.18239703023120 
H32   H     0.23223705009928 0.57428531882108 0.68238568029981 
H33   H     0.59448738983957 0.00207806122697 0.62270008968034 
H34   H     0.40534410001029 0.99715140095931 0.12254146990017 
H35   H     0.90518472985156 0.49731711119337 0.12258604026910 
H36   H     0.09467767997214 0.50097955999869 0.62259404009894 
H37   H     0.44932129978494 0.07238096921013 0.63457494996699 
H38   H     0.55051103995560 0.92672011878550 0.13449406006751 
H39   H     0.05028515005745 0.42637062025396 0.13439756975190 
H40   H     0.94953276989932 0.57095420954576 0.63432312025903 
C1    C     0.64187931009284 0.70076539991229 0.97329704009511 
C2    C     0.35826636000272 0.29982683928112 0.47321422002851 
C3    C     0.85810719979482 0.80002215941940 0.47325511019127 
C4    C     0.14188768013707 0.20040387104900 0.97309861023398 
C5    C     0.66265597994552 0.53571338031129 0.89496268004950 
C6    C     0.33743798978880 0.46484312104142 0.39487469983351 
C7    C     0.83729972970075 0.96506942955675 0.39491167019531 
C8    C     0.16269373992616 0.03529094951395 0.89478351973533 
C9    C     0.60350236994454 0.41073124967322 0.82596573010027 
C10   C     0.39654416987030 0.58975982905726 0.32593552978988 
C11   C     0.89638538009939 0.08950869035123 0.32590242986963 
C12   C     0.10359331018503 0.91051396018920 0.82571049016372 
C13   C     0.70029246021987 0.82483933121959 0.03647527022873 
C14   C     0.29989752989396 0.17574936043336 0.53633233997219 
C15   C     0.79975570976090 0.67615392009879 0.53638970999681 
C16   C     0.20025170978214 0.32443764899453 0.03631139003971 
C17   C     0.74579216009288 0.49430024902676 0.88352003988002 
C18   C     0.25428103998077 0.50612668897015 0.38336544027397 
C19   C     0.75416052965830 0.00673339894345 0.38345534026472 
C20   C     0.24583188028489 0.99374623050923 0.88342534012247 
C21   C     0.52033249009799 0.44653059978984 0.83080942968420 
C22   C     0.47971032010140 0.55379558923525 0.33081474980084 
C23   C     0.97951791982274 0.05292106875939 0.33067552016161 
C24   C     0.02043135976694 0.94659629087541 0.83042233031541 
C25   C     0.63009709976381 0.24838311974111 0.74866911993348 
C26   C     0.36988044976395 0.75191781892992 0.24861700997268 
C27   C     0.86971491981413 0.25169359876148 0.24860330011122 
C28   C     0.13024467994018 0.74814045039111 0.74846102022535 
C29   C     0.78244250010408 0.78970007886621 0.02390102989061 
C30   C     0.21773437978272 0.21082161958900 0.52370662998890 
C31   C     0.71760496001711 0.71151500076589 0.52381107992343 
C32   C     0.28240337984809 0.28911940017217 0.02383542992903 
C33   C     0.80443827004876 0.62392781089752 0.94881877015058 
C34   C     0.19568516999155 0.37652068991569 0.44861320973709 
C35   C     0.69556208021482 0.87728596882693 0.44872524003582 
C36   C     0.30444344977771 0.12326303887012 0.94878009994332 
C37   C     0.46597083969873 0.32938480997358 0.76292399017583 
C38   C     0.53399894970305 0.67051925006830 0.26292187021318 
C39   C     0.03377320014520 0.16930132114946 0.26272534027600 
C40   C     0.96612481012074 0.82939044905199 0.76249525978647 
C41   C     0.76911668995536 0.32390983889653 0.80589514001009 
C42   C     0.23089635002281 0.67640424055746 0.30571732979947 
C43   C     0.73077829019082 0.17705103067802 0.30581356014679 
C44   C     0.26921101015660 0.82341739025471 0.80581307994315 
C45   C     0.71375192981763 0.20629697966511 0.74104851020626 
C46   C     0.28622407979442 0.79401185089334 0.24094136028607 
C47   C     0.78608912974748 0.29429480117434 0.24098881985113 
C48   C     0.21389226009663 0.70590057936328 0.74091834033642 
C49   C     0.57330871969759 0.12931957914837 0.68047344001519 
C50   C     0.42659987015667 0.87048308097368 0.18040343979715 
C51   C     0.92640107014462 0.37011815124328 0.18036224993779 
C52   C     0.07350739979121 0.62879608934767 0.68025617983134 
C53   C     0.49242638996581 0.16838891947883 0.68720680997175 
C54   C     0.50747018013104 0.83115980920124 0.18714863987214 
C55   C     0.00724105981344 0.33026796889085 0.18700265024980 
C56   C     0.99262807016877 0.66798726123250 0.68686922028414 
