data_stdin
_audit_creation_method 'critic2'
_audit_creation_date 2023-8-11
_chemical_formula_sum 'C14 H10'
_cell_formula_units_Z 8
_cell_length_a        15.0346771700
_cell_length_b        15.0352984100
_cell_length_c         8.6008945904
_cell_angle_alpha        90.0002
_cell_angle_beta        90.0006
_cell_angle_gamma        90.0084
_cell_volume          1944.239579
_space_group_crystal_system tetragonal
_space_group_IT_number 82
_space_group_name_H-M_alt 'I-4'
_space_group_name_Hall 'I -4'
loop_
_symmetry_equiv_pos_site_id
_symmetry_equiv_pos_as_xyz
 1 'x,y,z'
 2 'y,-x,-z'
 3 '-x,-y,z'
 4 '-1/2-y,-1/2+x,-1/2-z'
 5 '-1/2+x,-1/2+y,-1/2+z'
 6 '-1/2+y,-1/2-x,-1/2-z'
 7 '-1/2-x,-1/2-y,-1/2+z'
 8 '-y,x,-z'
loop_
_atom_site_label
_atom_site_type_symbol
_atom_site_fract_x
_atom_site_fract_y
_atom_site_fract_z
H1    H     0.86199340975997 0.56864082967678 0.24139072983550 
H2    H     0.90124032009451 0.50621510015852 0.49325601033896 
H3    H     0.83045813999197 0.62302408976294 0.03705023950491 
H4    H     0.79164316983621 0.69444256007638 0.79099870962448 
H5    H     0.96222136993621 0.60395345022767 0.70434314021680 
H6    H     0.98204109980479 0.76480347027185 0.65618917981448 
H7    H     0.96489374977271 0.89440038971913 0.49088351951718 
H8    H     0.92145862990432 0.96324246005995 0.23943410953437 
H9    H     0.86529838028565 0.94983304032632 0.97582010969696 
H10   H     0.81017745019156 0.85796389001928 0.75646677959468 
C1    C     0.88797895996477 0.61289473001310 0.33029123966999 
C2    C     0.89771393995563 0.70468423016279 0.29962956026529 
C3    C     0.87327547019144 0.74459672027398 0.15189767979104 
C4    C     0.91049911025424 0.57709377008899 0.47324254960645 
C5    C     0.93188003966771 0.76011576008507 0.42068440030999 
C6    C     0.83944915031196 0.69452329982607 0.02588215979733 
C7    C     0.88247911996198 0.83851089030148 0.13210728983597 
C8    C     0.94496951985175 0.63182137967383 0.59145971974200 
C9    C     0.95580698999754 0.72190869027213 0.56500270942194 
C10   C     0.81729024006904 0.73456508009617 0.88626051962970 
C11   C     0.93989607986908 0.85387874021258 0.39551973949912 
C12   C     0.91574837986822 0.89163257020258 0.25758018946407 
C13   C     0.85899527003896 0.87801777008638 0.98851388012705 
C14   C     0.82759349005300 0.82694271030869 0.86673329026184 
