data_stdin
_audit_creation_method 'critic2'
_audit_creation_date 2023-8-11
_chemical_formula_sum 'C14 H10'
_cell_formula_units_Z 8
_cell_length_a        24.7623764094
_cell_length_b         5.7569687491
_cell_length_c        20.1341847138
_cell_angle_alpha        90.0032
_cell_angle_beta        43.5273
_cell_angle_gamma        90.0022
_cell_volume          1976.742351
_space_group_crystal_system monoclinic
_space_group_IT_number 15
_space_group_name_H-M_alt 'C2/c'
_space_group_name_Hall '-C 2yc'
loop_
_symmetry_equiv_pos_site_id
_symmetry_equiv_pos_as_xyz
 1 'x,y,z'
 2 '-1/2-x,-1/2-y,-z'
 3 '-1/2-x,-1/2+y,-1/2-z'
 4 '-1/2+x,-1/2-y,-1/2+z'
 5 '-1/2+x,-1/2+y,z'
 6 '-x,-y,-z'
 7 '-x,y,-1/2-z'
 8 'x,-y,-1/2+z'
loop_
_atom_site_label
_atom_site_type_symbol
_atom_site_fract_x
_atom_site_fract_y
_atom_site_fract_z
H1    H     0.28469003011786 0.02527942005999 0.18661130007286 
H2    H     0.25918434999422 0.03554638063232 0.09029257968841 
H3    H     0.30686374013326 0.02503213984302 0.26457508973682 
H4    H     0.34141010012201 0.02719287970983 0.35127913995407 
H5    H     0.31084158012168 0.36393583949668 0.97447846969504 
H6    H     0.38531052966896 0.68321210058000 0.96219340026406 
H7    H     0.44534883995410 0.85683599021919 0.00502849003693 
H8    H     0.47693478002420 0.84952671079409 0.09675847995494 
H9    H     0.46938285006843 0.66674789073335 0.21109210011085 
H10   H     0.42418992011657 0.34604620001971 0.32462155980016 
C1    C     0.30747095971982 0.16994018975018 0.13756228029148 
C2    C     0.35124889000321 0.34663499008661 0.13017997016956 
C3    C     0.36898637006755 0.34394230926266 0.18498837973305 
C4    C     0.29314049005408 0.17513115085326 0.08255153020955 
C5    C     0.37948705002302 0.53451126030170 0.06530960978274 
C6    C     0.34271326987201 0.16640978079980 0.25150250018387 
C7    C     0.41503932986829 0.52780628997353 0.17134069033828 
C8    C     0.32177183986076 0.35964182954116 0.01806235998619 
C9    C     0.36358867999860 0.53719746989620 0.01063379009279 
C10   C     0.36215057985207 0.16732780963532 0.30100103029722 
C11   C     0.42460745029763 0.71608900954251 0.05500083966320 
C12   C     0.44195973012019 0.71221859958937 0.10552900978623 
C13   C     0.43388717014537 0.52533757036909 0.22288556995026 
C14   C     0.40832784000233 0.34720283957820 0.28643369026934 
