data_stdin
_audit_creation_method 'critic2'
_audit_creation_date 2023-8-11
_chemical_formula_sum 'C14 H10'
_cell_formula_units_Z 2
_cell_length_a         6.2983145272
_cell_length_b         5.2428893251
_cell_length_c        14.5027715530
_cell_angle_alpha        89.9974
_cell_angle_beta        75.5951
_cell_angle_gamma        89.9996
_cell_volume           463.845651
_space_group_crystal_system monoclinic
_space_group_IT_number 7
_space_group_name_H-M_alt 'Pc'
_space_group_name_Hall 'P -2yc'
loop_
_symmetry_equiv_pos_site_id
_symmetry_equiv_pos_as_xyz
 1 'x,y,z'
 2 'x,-y,-1/2+z'
loop_
_atom_site_label
_atom_site_type_symbol
_atom_site_fract_x
_atom_site_fract_y
_atom_site_fract_z
H1    H     0.98490543996388 0.27761572977485 0.01281095006918 
H2    H     0.90564669974507 0.95007459030657 0.13673849003457 
H3    H     0.05426355039231 0.52799948995668 0.90657054969140 
H4    H     0.15037037018866 0.83146007907995 0.77376925008490 
H5    H     0.20023801048427 0.64657222939741 0.15611472030086 
H6    H     0.57095244993892 0.68063073944062 0.04969450003044 
H7    H     0.83363601920635 0.88759285960354 0.91967082015329 
H8    H     0.92316835064991 0.20877922076324 0.79183407029567 
H9    H     0.81207779993779 0.54921857002225 0.69951304979365 
H10   H     0.52682488043998 0.84450937078464 0.66898324985616 
C1    C     0.11543602005738 0.14903661035370 0.01979909981670 
C2    C     0.32553263931464 0.17076987931792 0.95685127032047 
C3    C     0.37681490963784 0.35629158939017 0.88013507970910 
C4    C     0.07000833975381 0.96336610925607 0.08997425018261 
C5    C     0.49245525987967 0.99898450041767 0.96916843999463 
C6    C     0.22044198041567 0.52915596012648 0.86160595976204 
C7    C     0.59412816000747 0.36572635057045 0.82002653972616 
C8    C     0.23450514065474 0.79287432936801 0.10111872013451 
C9    C     0.44270998034713 0.81211260014711 0.04163776021553 
C10   C     0.27396994956048 0.70096435053905 0.78690443968627 
C11   C     0.70826247964051 0.01777447055981 0.90799793983789 
C12   C     0.75740137964816 0.19489420973906 0.83706596987130 
C13   C     0.64504853050424 0.54335222058605 0.74426857013081 
C14   C     0.48760730081672 0.70815011002423 0.72735923984100 
