data_stdin
_audit_creation_method 'critic2'
_audit_creation_date 2023-8-11
_chemical_formula_sum 'C14 H10'
_cell_formula_units_Z 4
_cell_length_a        11.1539993446
_cell_length_b         8.1601867308
_cell_length_c        12.3258230757
_cell_angle_alpha        89.9992
_cell_angle_beta        56.8057
_cell_angle_gamma        89.9992
_cell_volume           938.810776
_space_group_crystal_system monoclinic
_space_group_IT_number 14
_space_group_name_H-M_alt 'P2_1/c'
_space_group_name_Hall '-P 2ybc'
loop_
_symmetry_equiv_pos_site_id
_symmetry_equiv_pos_as_xyz
 1 'x,y,z'
 2 '-x,-y,-z'
 3 '-x,-1/2+y,-1/2-z'
 4 'x,-1/2-y,-1/2+z'
loop_
_atom_site_label
_atom_site_type_symbol
_atom_site_fract_x
_atom_site_fract_y
_atom_site_fract_z
H1    H     0.74773989028865 0.81213918950893 0.25263218960286 
H2    H     0.88191138975649 0.04065525945932 0.26637795999008 
H3    H     0.63847434004444 0.62286880040975 0.24645796045472 
H4    H     0.50275941043249 0.38714451016715 0.24581487992452 
H5    H     0.99073216986875 0.01442800999579 0.39538730967394 
H6    H     0.95923869054705 0.75607952983323 0.51581285966235 
H7    H     0.86977113966009 0.47718282998699 0.57503340027971 
H8    H     0.74547646019376 0.23898029025562 0.55830237972410 
H9    H     0.60684849978081 0.11424346040269 0.48210749044391 
H10   H     0.48528402059638 0.13099449005209 0.36366792972492 
C1    C     0.79442067977271 0.79707198058667 0.30975070997983 
C2    C     0.77719026973853 0.64735990954803 0.37446733029684 
C3    C     0.70037724959382 0.50825318986957 0.36752142008552 
C4    C     0.86982586985432 0.92664018980314 0.31720374031635 
C5    C     0.83778438031056 0.63426532006428 0.45056995953140 
C6    C     0.63258724009341 0.51254701031616 0.29864459006318 
C7    C     0.69022661966739 0.36080539058316 0.43452996996355 
C8    C     0.93030531011361 0.91261357958770 0.39138871979802 
C9    C     0.91327152997059 0.76882592017616 0.45773331018190 
C10   C     0.55658147954450 0.37928257004954 0.29736011012327 
C11   C     0.82343337050748 0.48441038052261 0.51705175979815 
C12   C     0.75469228964330 0.35241157032372 0.50771976026972 
C13   C     0.61320996959334 0.22579644051062 0.43066834015877 
C14   C     0.54660520998907 0.23459558056594 0.36379970993325 
