data_stdin
_audit_creation_method 'critic2'
_audit_creation_date 2023-8-11
_chemical_formula_sum 'C14 H10'
_cell_formula_units_Z 4
_cell_length_a         8.2804636211
_cell_length_b        10.9259055500
_cell_length_c        13.7897677093
_cell_angle_alpha        89.9999
_cell_angle_beta        50.2316
_cell_angle_gamma        90.0002
_cell_volume           958.936454
_space_group_crystal_system monoclinic
_space_group_IT_number 14
_space_group_name_H-M_alt 'P2_1/c'
_space_group_name_Hall '-P 2ybc'
loop_
_symmetry_equiv_pos_site_id
_symmetry_equiv_pos_as_xyz
 1 'x,y,z'
 2 '-x,-y,-z'
 3 '-x,-1/2+y,-1/2-z'
 4 'x,-1/2-y,-1/2+z'
loop_
_atom_site_label
_atom_site_type_symbol
_atom_site_fract_x
_atom_site_fract_y
_atom_site_fract_z
H1    H     0.04081303072411 0.07593525011090 0.28242242971666 
H2    H     0.19640956911588 0.04080242026339 0.06380464040188 
H3    H     0.91190320915611 0.09901703015428 0.46159566040537 
H4    H     0.73590609027023 0.12955285966682 0.68498732027994 
H5    H     0.06795897011673 0.86943226024442 0.00755799020543 
H6    H     0.77772401038849 0.73618357992916 0.17706503993966 
H7    H     0.52171838969360 0.67959922957272 0.39788014977988 
H8    H     0.34673749981067 0.71589712980934 0.62168428043153 
H9    H     0.31093887020548 0.83408580975303 0.78495643955159 
H10   H     0.42875474939896 0.00157234975080 0.84921769034159 
C1    C     0.98408088994896 0.99958344963383 0.26104555019722 
C2    C     0.81975710035049 0.92477078011826 0.35945362961909 
C3    C     0.71919559993713 0.94524376990768 0.49122915030473 
C4    C     0.07260250981975 0.97970960031594 0.13660477034937 
C5    C     0.74673321956925 0.82743457993905 0.32716015044742 
C6    C     0.78212233015055 0.03943435042856 0.53094962043276 
C7    C     0.54782684006267 0.86874776020609 0.58547840988965 
C8    C     0.00042356995227 0.88347520973026 0.10519357015798 
C9    C     0.83959986013378 0.80879871955971 0.19940314044601 
C10   C     0.68174150999209 0.05770918981189 0.65727938035850 
C11   C     0.57618271037270 0.75220361000686 0.42480086018910 
C12   C     0.48015300923333 0.77215072013017 0.54869089039526 
C13   C     0.44483682989236 0.89106763016803 0.71417328957308 
C14   C     0.51019984965315 0.98407240029422 0.74994070044363 
