data_stdin
_audit_creation_method 'critic2'
_audit_creation_date 2023-8-11
_chemical_formula_sum 'C14 H10'
_cell_formula_units_Z 8
_cell_length_a        19.3534848915
_cell_length_b        19.3535295515
_cell_length_c         5.5081037802
_cell_angle_alpha        90.0006
_cell_angle_beta        90.0001
_cell_angle_gamma        89.9986
_cell_volume          2063.105667
_space_group_crystal_system tetragonal
_space_group_IT_number 82
_space_group_name_H-M_alt 'I-4'
_space_group_name_Hall 'I -4'
loop_
_symmetry_equiv_pos_site_id
_symmetry_equiv_pos_as_xyz
 1 'x,y,z'
 2 '-1/2+y,-1/2-x,-1/2-z'
 3 '-x,-y,z'
 4 '-y,x,-z'
 5 '-1/2+x,-1/2+y,-1/2+z'
 6 'y,-x,-z'
 7 '-1/2-x,-1/2-y,-1/2+z'
 8 '-1/2-y,-1/2+x,-1/2-z'
loop_
_atom_site_label
_atom_site_type_symbol
_atom_site_fract_x
_atom_site_fract_y
_atom_site_fract_z
H1    H     0.21903228010398 0.71612705976103 0.86643233955745 
H2    H     0.24188442025788 0.59235645993326 0.89479356038628 
H3    H     0.20038787979155 0.81763890021656 0.85601264976623 
H4    H     0.16810764023014 0.93945898023191 0.83497377928811 
H5    H     0.19137494994198 0.52247097999267 0.23268802034523 
H6    H     0.11861667997901 0.57997167985783 0.54530048985593 
H7    H     0.06322562003964 0.68226504979988 0.70952413040552 
H8    H     0.03439859981892 0.80618810012580 0.68252129986944 
H9    H     0.04250733016823 0.91675701007289 0.47569704053023 
H10   H     0.08769358018838 0.99027679017321 0.13837444960985 
C1    C     0.19658793982837 0.68726286017603 0.01613440965126 
C2    C     0.15478980000363 0.72132208011976 0.18955386023836 
C3    C     0.13895299986455 0.79466690982054 0.17642242931920 
C4    C     0.20946251993134 0.61694665979963 0.03148952944864 
C5    C     0.12646267978133 0.68124269022459 0.38351205089675 
C6    C     0.16548034999415 0.83817105988098 0.99259437915365 
C7    C     0.09431772974504 0.82436558979257 0.35482552945344 
C8    C     0.18114613997524 0.57767783024246 0.22230846010736 
C9    C     0.14053688984739 0.60962515984232 0.39567427976117 
C10   C     0.14751803984267 0.90736351979410 0.98025312003732 
C11   C     0.08353096009484 0.71377204988698 0.56187068950824 
C12   C     0.06770339022245 0.78228753003089 0.54726263070123 
C13   C     0.07686419008043 0.89518598010096 0.33870879953552 
C14   C     0.10234355011084 0.93608993024460 0.15313800039915 
