data_stdin
_audit_creation_method 'critic2'
_audit_creation_date 2023-8-11
_chemical_formula_sum 'C14 H10'
_cell_formula_units_Z 4
_cell_length_a        16.1900548400
_cell_length_b         9.5213050514
_cell_length_c         6.3787593814
_cell_angle_alpha        89.9989
_cell_angle_beta        90.0033
_cell_angle_gamma        89.9990
_cell_volume           983.288633
_space_group_crystal_system orthorhombic
_space_group_IT_number 33
_space_group_name_H-M_alt 'Pna2_1'
_space_group_name_Hall 'P 2c -2n'
loop_
_symmetry_equiv_pos_site_id
_symmetry_equiv_pos_as_xyz
 1 'x,y,z'
 2 '-x,-y,-1/2+z'
 3 '-1/2-x,-1/2+y,-1/2+z'
 4 '-1/2+x,-1/2-y,z'
loop_
_atom_site_label
_atom_site_type_symbol
_atom_site_fract_x
_atom_site_fract_y
_atom_site_fract_z
H1    H     0.34333247982997 0.20367837992636 0.06957863945192 
H2    H     0.39820788971745 0.43855594977446 0.00518863989836 
H3    H     0.29644454007202 0.01238179964180 0.10689951035818 
H4    H     0.24764189027278 0.77168833986634 0.15670511949518 
H5    H     0.47203613974289 0.49352097949716 0.67124493956401 
H6    H     0.49018278969585 0.30649525041762 0.40229681928253 
H7    H     0.46879499972668 0.06814700967202 0.28080151965082 
H8    H     0.41876886972972 0.82710075008805 0.33903717010606 
H9    H     0.34834628024463 0.65356618956898 0.55712581968213 
H10   H     0.27453360994370 0.58894104022347 0.88621610018341 
C1    C     0.37497122004064 0.22404553029581 0.92235734046997 
C2    C     0.38320967010070 0.11634880978984 0.77092084933356 
C3    C     0.35144826022371 0.97526027003099 0.80242413013055 
C4    C     0.40624960985982 0.35733841019959 0.88670097935273 
C5    C     0.42547461000898 0.14828972020798 0.58015699006680 
C6    C     0.30801950982564 0.93541802010030 0.98486140019229 
C7    C     0.36546244973357 0.87093136047707 0.64515682935328 
C8    C     0.44770013989199 0.38846489955979 0.69817412951386 
C9    C     0.45726007023950 0.28505658041112 0.54787231049649 
C10   C     0.28077545018776 0.79911674951793 0.01417023047780 
C11   C     0.43656956998218 0.04126890042408 0.42514701974361 
C12   C     0.40853068009166 0.90782742985031 0.45717269015372 
C13   C     0.33706034975516 0.73203801031412 0.67831879049048 
C14   C     0.29571733998713 0.69617045021407 0.86057490957611 
