data_stdin
_audit_creation_method 'critic2'
_audit_creation_date 2023-8-11
_chemical_formula_sum 'C14 H10'
_cell_formula_units_Z 8
_cell_length_a        21.8172811837
_cell_length_b         5.4426099585
_cell_length_c        19.9802674352
_cell_angle_alpha        89.9984
_cell_angle_beta        56.1833
_cell_angle_gamma        90.0008
_cell_volume          1971.139732
_space_group_crystal_system monoclinic
_space_group_IT_number 15
_space_group_name_H-M_alt 'C2/c'
_space_group_name_Hall '-C 2yc'
loop_
_symmetry_equiv_pos_site_id
_symmetry_equiv_pos_as_xyz
 1 'x,y,z'
 2 '-x,-y,-z'
 3 '-x,y,-1/2-z'
 4 'x,-y,-1/2+z'
 5 '-1/2+x,-1/2+y,z'
 6 '-1/2-x,-1/2-y,-z'
 7 '-1/2-x,-1/2+y,-1/2-z'
 8 '-1/2+x,-1/2-y,-1/2+z'
loop_
_atom_site_label
_atom_site_type_symbol
_atom_site_fract_x
_atom_site_fract_y
_atom_site_fract_z
H1    H     0.28753629020373 0.07529430966202 0.20894087992570 
H2    H     0.29402648964847 0.06890190075583 0.08323383025495 
H3    H     0.28403779031512 0.07451658054767 0.31066782983748 
H4    H     0.28262232974068 0.06364915024632 0.43342464017660 
H5    H     0.36670421977218 0.74362573915490 0.97986640001426 
H6    H     0.42979190978303 0.41842016021713 0.00774186009892 
H7    H     0.46074308008095 0.22978404980316 0.09547627005099 
H8    H     0.45582289014975 0.22654156942049 0.22189492000081 
H9    H     0.41883354019153 0.41491179003400 0.34945127991005 
H10   H     0.35027507976286 0.73396316962274 0.45454029010344 
C1    C     0.31901401007775 0.93051998915344 0.16565035998659 
C2    C     0.35510489014984 0.75044821995643 0.18277318011671 
C3    C     0.35265900974778 0.74963934049007 0.25697141027013 
C4    C     0.32289545990296 0.92769139941053 0.09403615029752 
C5    C     0.39533281981086 0.56203935920668 0.12439785997045 
C6    C     0.31393629997438 0.92862342047375 0.31785078016022 
C7    C     0.39060797987298 0.56045097935862 0.26953586988887 
C8    C     0.36343394026980 0.74386970006218 0.03627447983663 
C9    C     0.39861251979936 0.56300673020619 0.05167165015432 
C10   C     0.31309414017503 0.92310227011716 0.38768585008141 
C11   C     0.43166159029842 0.37402999922899 0.14017725983368 
C12   C     0.42926828997047 0.37329659011040 0.20983718020405 
C13   C     0.38904622023520 0.55925859941038 0.34122062972023 
C14   C     0.35110973011739 0.73775905969122 0.39955939986270 
