data_stdin
_audit_creation_method 'critic2'
_audit_creation_date 2023-8-11
_chemical_formula_sum 'C14 H10'
_cell_formula_units_Z 4
_cell_length_a         8.2111479203
_cell_length_b         5.9604865005
_cell_length_c        19.5963907700
_cell_angle_alpha        90.0007
_cell_angle_beta        90.0005
_cell_angle_gamma        90.0000
_cell_volume           959.095107
_space_group_crystal_system orthorhombic
_space_group_IT_number 19
_space_group_name_H-M_alt 'P2_12_12_1'
_space_group_name_Hall 'P 2ac 2ab'
loop_
_symmetry_equiv_pos_site_id
_symmetry_equiv_pos_as_xyz
 1 'x,y,z'
 2 '-1/2-x,-y,-1/2+z'
 3 '-x,-1/2+y,-1/2-z'
 4 '-1/2+x,-1/2-y,-z'
loop_
_atom_site_label
_atom_site_type_symbol
_atom_site_fract_x
_atom_site_fract_y
_atom_site_fract_z
H1    H     0.08079591971890 0.08504602943171 0.77327890984059 
H2    H     0.07689010944840 0.07121895000703 0.89761115998843 
H3    H     0.08640770025185 0.08877283950891 0.67115556017290 
H4    H     0.10616544962261 0.08762379076304 0.54720306025490 
H5    H     0.21186115005459 0.75474640946352 0.95989402024547 
H6    H     0.34172520958344 0.44584772970897 0.89393129995625 
H7    H     0.41433040974788 0.27171655952504 0.78624400984400 
H8    H     0.42906474042213 0.28247574941511 0.66075397003957 
H9    H     0.37667469962455 0.46793224967681 0.55331366978554 
H10   H     0.25322906977738 0.77936173051806 0.48619045993578 
C1    C     0.13811730038210 0.94383532018641 0.79875588009264 
C2    C     0.21250035012980 0.77233194948759 0.75993421989077 
C3    C     0.21952780956164 0.77709732034890 0.68582644022354 
C4    C     0.13697167034570 0.93716697955859 0.86944332021213 
C5    C     0.28465708025959 0.58823565040499 0.79558571992152 
C6    C     0.15005712003911 0.95111815080307 0.64645264005263 
C7    C     0.30037968050070 0.59877924006214 0.65078883974943 
C8    C     0.21153533040787 0.75803545026808 0.90433446987791 
C9    C     0.28312532995843 0.58565577032814 0.86777507983539 
C10   C     0.16142565059618 0.95099229947607 0.57590192019376 
C11   C     0.36134302060641 0.41126402048631 0.75813516980953 
C12   C     0.36923264997521 0.41692052019366 0.68866374991599 
C13   C     0.31196692033024 0.60382410018718 0.57880000006838 
C14   C     0.24372280002106 0.77721987955532 0.54158915975713 
