data_stdin
_audit_creation_method 'critic2'
_audit_creation_date 2023-8-11
_chemical_formula_sum 'C14 H10'
_cell_formula_units_Z 4
_cell_length_a        16.6357770457
_cell_length_b         6.1839108750
_cell_length_c         9.6456715935
_cell_angle_alpha        90.0014
_cell_angle_beta        79.8146
_cell_angle_gamma        89.9995
_cell_volume           976.652517
_space_group_crystal_system monoclinic
_space_group_IT_number 14
_space_group_name_H-M_alt 'P2_1/c'
_space_group_name_Hall '-P 2ybc'
loop_
_symmetry_equiv_pos_site_id
_symmetry_equiv_pos_as_xyz
 1 'x,y,z'
 2 '-x,-y,-z'
 3 '-x,-1/2+y,-1/2-z'
 4 'x,-1/2-y,-1/2+z'
loop_
_atom_site_label
_atom_site_type_symbol
_atom_site_fract_x
_atom_site_fract_y
_atom_site_fract_z
H1    H     0.36071604970452 0.80987590973043 0.20088879009703 
H2    H     0.47404534002938 0.70755475955062 0.31833203025019 
H3    H     0.26772053013229 0.87886469025783 0.09986035049147 
H4    H     0.14657740977185 0.97010156999196 0.00216858959808 
H5    H     0.47027159024231 0.35811577952716 0.45070561024645 
H6    H     0.35068934018455 0.11516525989841 0.46363061987569 
H7    H     0.21850330000576 0.02993594968945 0.40525473030358 
H8    H     0.09978080005011 0.12959073984177 0.29899097985159 
H9    H     0.02864459980900 0.38321820049005 0.17210115986320 
H10   H     0.02550594995726 0.72606806009672 0.03662795019878 
C1    C     0.35766383019772 0.65678976944704 0.25726570009134 
C2    C     0.28872874987603 0.52111862980944 0.26235988006358 
C3    C     0.21922395996336 0.57764859989561 0.19695942968306 
C4    C     0.42168757992037 0.59995694971005 0.32451060031597 
C5    C     0.28704120014466 0.32226292063670 0.33854093014620 
C6    C     0.21610169009480 0.76834105966470 0.11747111025446 
C7    C     0.15015744018119 0.43606474069969 0.21450653046839 
C8    C     0.41961385991309 0.40359184067716 0.39912692980241 
C9    C     0.35325986012160 0.26696900984194 0.40564023050047 
C10   C     0.14754296016903 0.82051578035021 0.06109611972857 
C11   C     0.21783883993093 0.18218785024837 0.34883963966997 
C12   C     0.15197791023601 0.23787402047599 0.29025577950692 
C13   C     0.08078080978929 0.49292271011594 0.15622794978811 
C14   C     0.07916295025828 0.68292084022535 0.08100424947075 
