data_stdin
_audit_creation_method 'critic2'
_audit_creation_date 2023-8-11
_chemical_formula_sum 'C14 H10'
_cell_formula_units_Z 8
_cell_length_a        25.2990716793
_cell_length_b         4.8534533052
_cell_length_c        16.3173127535
_cell_angle_alpha        90.0006
_cell_angle_beta        73.3421
_cell_angle_gamma        90.0031
_cell_volume          1919.485234
_space_group_crystal_system monoclinic
_space_group_IT_number 15
_space_group_name_H-M_alt 'C2/c'
_space_group_name_Hall '-C 2yc'
loop_
_symmetry_equiv_pos_site_id
_symmetry_equiv_pos_as_xyz
 1 'x,y,z'
 2 '-x,-y,-z'
 3 '-x,y,-1/2-z'
 4 'x,-y,-1/2+z'
 5 '-1/2+x,-1/2+y,z'
 6 '-1/2-x,-1/2-y,-z'
 7 '-1/2-x,-1/2+y,-1/2-z'
 8 '-1/2+x,-1/2-y,-1/2+z'
loop_
_atom_site_label
_atom_site_type_symbol
_atom_site_fract_x
_atom_site_fract_y
_atom_site_fract_z
H1    H     0.27268575001415 0.83756996995394 0.89697615991337 
H2    H     0.25649309024840 0.54842301920790 0.78351405970607 
H3    H     0.29001548013237 0.08228581975334 0.98450937979342 
H4    H     0.31033998995998 0.34494845992871 0.10010039994677 
H5    H     0.32932816014717 0.22165982984571 0.70216368970445 
H6    H     0.41683918996441 0.18111877935165 0.73947210013862 
H7    H     0.47697652020517 0.31578167899849 0.82506724968848 
H8    H     0.49500541017876 0.58992113096168 0.94131308990643 
H9    H     0.46439771996371 0.91529660927828 0.05885317011752 
H10   H     0.39677159024999 0.26154536919652 0.13979148971472 
C1    C     0.30494281020626 0.69686544089698 0.86275998973030 
C2    C     0.35492531001980 0.68077697977518 0.88486768011021 
C3    C     0.36570955020857 0.84372092049796 0.95303511982484 
C4    C     0.29564433019351 0.53413667899710 0.79852280999643 
C5    C     0.39582864021364 0.49011899930421 0.83899878970508 
C6    C     0.32829017021468 0.04207709971603 0.00013421976729 
C7    C     0.41622676986605 0.80341678927919 0.97405207008037 
C8    C     0.33625469984613 0.34871517068815 0.75307807013128 
C9    C     0.38552635020133 0.32766683061852 0.77333780977294 
C10   C     0.33957926020466 0.19095637030992 0.06552702977356 
C11   C     0.44649904021424 0.46301818022634 0.86071491981993 
C12   C     0.45626448982560 0.61292927928999 0.92544511027195 
C13   C     0.42617979013530 0.95300788986188 0.04251368975263 
C14   C     0.38866561014345 0.14500108013196 0.08764664018816 
