data_stdin
_audit_creation_method 'critic2'
_audit_creation_date 2023-8-11
_chemical_formula_sum 'C14 H10'
_cell_formula_units_Z 4
_cell_length_a        13.7974218813
_cell_length_b         6.3949962302
_cell_length_c        10.9116701409
_cell_angle_alpha        89.9996
_cell_angle_beta        86.3725
_cell_angle_gamma        89.9997
_cell_volume           960.856386
_space_group_crystal_system monoclinic
_space_group_IT_number 14
_space_group_name_H-M_alt 'P2_1/c'
_space_group_name_Hall '-P 2ybc'
loop_
_symmetry_equiv_pos_site_id
_symmetry_equiv_pos_as_xyz
 1 'x,y,z'
 2 '-x,-y,-z'
 3 '-x,-1/2+y,-1/2-z'
 4 'x,-1/2-y,-1/2+z'
loop_
_atom_site_label
_atom_site_type_symbol
_atom_site_fract_x
_atom_site_fract_y
_atom_site_fract_z
H1    H     0.56600532029149 0.58624339970413 0.29976964957840 
H2    H     0.48907578006625 0.32934162975644 0.44075548991668 
H3    H     0.63633173015341 0.79931612000194 0.19367817033027 
H4    H     0.72200298034988 0.04225516066312 0.05166318023289 
H5    H     0.58240269008048 0.01959225018656 0.50925608976931 
H6    H     0.75274701993902 0.96852426025113 0.43036369978449 
H7    H     0.89472534023855 0.08218934034409 0.30794877989163 
H8    H     0.98009899990274 0.33848126013122 0.17145075035891 
H9    H     0.97933115031753 0.66287283037354 0.05144753015054 
H10   H     0.89318452006346 0.97391603025540 0.97591701001598 
C1    C     0.60828230972460 0.45252935004394 0.32742034991642 
C2    C     0.70653444987952 0.43078493042208 0.28373791025276 
C3    C     0.75628021018105 0.58175507961276 0.20264509954395 
C4    C     0.56426288013562 0.30667208042768 0.40677921034717 
C5    C     0.75854807001939 0.25154654027208 0.32194827983305 
C6    C     0.71064582008463 0.76412723972728 0.16118296018367 
C7    C     0.85552288963990 0.54622130042208 0.16218542028684 
C8    C     0.61645389967806 0.13180907932219 0.44516060035810 
C9    C     0.71197001971253 0.10420463923701 0.40226026001531 
C10   C     0.75880564982682 0.90224575056884 0.08095187013790 
C11   C     0.85776428010008 0.22264708948472 0.27931615974763 
C12   C     0.90453070021537 0.36411405055412 0.20311807018704 
C13   C     0.90349761997098 0.69068629936572 0.08079205009763 
C14   C     0.85592541995853 0.86477662046613 0.03939554968548 
