data_stdin
_audit_creation_method 'critic2'
_audit_creation_date 2023-8-11
_chemical_formula_sum 'C14 H10'
_cell_formula_units_Z 4
_cell_length_a        20.3046118607
_cell_length_b         5.9039964325
_cell_length_c         8.4275886873
_cell_angle_alpha        89.9993
_cell_angle_beta        73.2084
_cell_angle_gamma        89.9985
_cell_volume           967.208604
_space_group_crystal_system monoclinic
_space_group_IT_number 13
_space_group_name_H-M_alt 'P2/c'
_space_group_name_Hall '-P 2yc'
loop_
_symmetry_equiv_pos_site_id
_symmetry_equiv_pos_as_xyz
 1 'x,y,z'
 2 '-x,-y,-z'
 3 '-x,y,-1/2-z'
 4 'x,-y,-1/2+z'
loop_
_atom_site_label
_atom_site_type_symbol
_atom_site_fract_x
_atom_site_fract_y
_atom_site_fract_z
H1    H     0.81755551008184 0.85559713965456 0.86873658950467 
H2    H     0.94096055023045 0.88074953060734 0.82840439987493 
H3    H     0.71608266004207 0.84820249956249 0.89996680961234 
H4    H     0.59329061002216 0.85880049054924 0.93051891060497 
H5    H     0.99144305006251 0.21025315956379 0.93846017945712 
H6    H     0.91382275014315 0.51358637064441 0.09551048059471 
H7    H     0.80052449986302 0.67533005920884 0.20565562998349 
H8    H     0.67553099984958 0.66850323029429 0.24226946968405 
H9    H     0.57566822977800 0.49692255988576 0.18922174047252 
H10   H     0.52087776004637 0.18276865030582 0.07575910031738 
C1    C     0.83754239023540 0.00056706936955 0.91947248971752 
C2    C     0.79241498000850 0.17140033942207 0.00539711952515 
C3    C     0.71879986985156 0.16712379985925 0.02679509975965 
C4    C     0.90777746016122 0.01494575017436 0.89613536014097 
C5    C     0.82126558995079 0.35917448987522 0.06914075977949 
C6    C     0.68629398018419 0.99103579975513 0.96420505994289 
C7    C     0.67737590007455 0.35117897941177 0.11045862954387 
C8    C     0.93607676992571 0.20059783014797 0.95851679000644 
C9    C     0.89317221016439 0.36945940952582 0.04446984990104 
C10   C     0.61632347000082 0.99640042078643 0.98198011027982 
C11   C     0.77734669984022 0.53586667999245 0.15656595938671 
C12   C     0.70825774022467 0.53194856027261 0.17672416977380 
C13   C     0.60609344008020 0.35360059947358 0.12620688969850 
C14   C     0.57579473001223 0.17915907011315 0.06275538976186 
