data_stdin
_audit_creation_method 'critic2'
_audit_creation_date 2023-8-11
_chemical_formula_sum 'C14 H10'
_cell_formula_units_Z 8
_cell_length_a        15.9657772803
_cell_length_b        19.5374947723
_cell_length_c         6.2038984602
_cell_angle_alpha        90.0008
_cell_angle_beta        90.0006
_cell_angle_gamma        89.9991
_cell_volume          1935.190050
_space_group_crystal_system orthorhombic
_space_group_IT_number 41
_space_group_name_H-M_alt 'Aea2'
_space_group_name_Hall 'A 2 -2ac'
loop_
_symmetry_equiv_pos_site_id
_symmetry_equiv_pos_as_xyz
 1 'x,y,z'
 2 '-x,-y,z'
 3 '-1/2-x,y,-1/2+z'
 4 '-1/2+x,-y,-1/2+z'
 5 'x,-1/2+y,-1/2+z'
 6 '-x,-1/2-y,-1/2+z'
 7 '-1/2-x,-1/2+y,z'
 8 '-1/2+x,-1/2-y,z'
loop_
_atom_site_label
_atom_site_type_symbol
_atom_site_fract_x
_atom_site_fract_y
_atom_site_fract_z
H1    H     0.20583848015719 0.68569904988316 0.98890484048149 
H2    H     0.20362372006425 0.56142671999746 0.96873718006692 
H3    H     0.20134531986187 0.78817396981545 0.00672454923321 
H4    H     0.19342493028904 0.91236169015823 0.03980905050389 
H5    H     0.13369289025655 0.49216075978895 0.25745964014848 
H6    H     0.07011338028638 0.55129162001816 0.57246646975537 
H7    H     0.04029241999589 0.65481815024823 0.77349435926903 
H8    H     0.04199072978940 0.78053561999907 0.80610654070872 
H9    H     0.06784015999408 0.89225007977060 0.65246317978168 
H10   H     0.12481340029872 0.96629759981282 0.35987586958117 
C1    C     0.17593597997830 0.65734737980360 0.11825470053322 
C2    C     0.14006635009414 0.69240889024872 0.29463558002619 
C3    C     0.13950509993172 0.76662461011684 0.31158252019714 
C4    C     0.17409283993964 0.58656343999867 0.10563328983311 
C5    C     0.10242395026960 0.65271070024497 0.46229880013433 
C6    C     0.17226563976881 0.80990499005901 0.14954172935682 
C7    C     0.10272034977574 0.79767335983858 0.49751789971284 
C8    C     0.13529776989506 0.54774564021878 0.26869122990875 
C9    C     0.10003171986803 0.58056837983615 0.44418440928722 
C10   C     0.16744705022428 0.88049557979861 0.16731062997632 
C11   C     0.06779912995810 0.68613157976192 0.64692641044277 
C12   C     0.06847105978392 0.75569334992330 0.66462496036457 
C13   C     0.09817448013457 0.86984203979652 0.51166027969039 
C14   C     0.12946956026849 0.91081452975816 0.34853612924746 
