data_stdin
_audit_creation_method 'critic2'
_audit_creation_date 2023-8-11
_chemical_formula_sum 'C14 H10'
_cell_formula_units_Z 2
_cell_length_a         6.3021410249
_cell_length_b         7.8536374500
_cell_length_c        10.1183539798
_cell_angle_alpha        90.0000
_cell_angle_beta        73.5652
_cell_angle_gamma        90.0000
_cell_volume           480.343449
_space_group_crystal_system monoclinic
_space_group_IT_number 4
_space_group_name_H-M_alt 'P2_1'
_space_group_name_Hall 'P 2yb'
loop_
_symmetry_equiv_pos_site_id
_symmetry_equiv_pos_as_xyz
 1 'x,y,z'
 2 '-x,-1/2+y,-z'
loop_
_atom_site_label
_atom_site_type_symbol
_atom_site_fract_x
_atom_site_fract_y
_atom_site_fract_z
H1    H     0.46747892018820 0.04246309035138 0.33238822975060 
H2    H     0.62922962000218 0.04152581938540 0.08288250000630 
H3    H     0.34707076002755 0.04545864988179 0.53789209034515 
H4    H     0.22007881047384 0.05896055061117 0.78857727024816 
H5    H     0.00056010911483 0.91113245013014 0.97723962040884 
H6    H     0.21050362059714 0.78750634023346 0.12916809979769 
H7    H     0.24653989924768 0.72365292938289 0.35518740006533 
H8    H     0.09680059034069 0.72585643987654 0.60844868995959 
H9    H     0.80857471972467 0.79776625954116 0.81510839963914 
H10   H     0.44564822933072 0.93279851026740 0.93098826995694 
C1    C     0.62956703010017 0.98530469947023 0.28987406968683 
C2    C     0.74483971988845 0.91594472996836 0.37851281009957 
C3    C     0.65716537026316 0.91774808940806 0.52768752983749 
C4    C     0.72067131924401 0.98450567936444 0.14820556019154 
C5    C     0.95940242069020 0.84529421985126 0.31792013953313 
C6    C     0.45058208914989 0.99079628938479 0.59649617032751 
C7    C     0.78780520004372 0.84825499010679 0.60939312011722 
C8    C     0.93075240053219 0.91267935062545 0.08869291021654 
C9    C     0.04782934036122 0.84430683041437 0.17286625039866 
C10   C     0.37693804956993 0.99710542034794 0.73900612966390 
C11   C     0.08331903016237 0.77629530051738 0.40392465984696 
C12   C     0.00059126021549 0.77742502030625 0.54384302025256 
C13   C     0.70736498996663 0.85333595039374 0.75484933984062 
C14   C     0.50548310072035 0.92765644997187 0.81902296968900 
