data_stdin
_audit_creation_method 'critic2'
_audit_creation_date 2023-8-11
_chemical_formula_sum 'C14 H10'
_cell_formula_units_Z 4
_cell_length_a         6.2165121085
_cell_length_b        10.9788933000
_cell_length_c        14.2571690267
_cell_angle_alpha        89.9997
_cell_angle_beta        83.6154
_cell_angle_gamma        90.0008
_cell_volume           967.022829
_space_group_crystal_system monoclinic
_space_group_IT_number 14
_space_group_name_H-M_alt 'P2_1/c'
_space_group_name_Hall '-P 2ybc'
loop_
_symmetry_equiv_pos_site_id
_symmetry_equiv_pos_as_xyz
 1 'x,y,z'
 2 '-x,-y,-z'
 3 '-x,-1/2+y,-1/2-z'
 4 'x,-1/2-y,-1/2+z'
loop_
_atom_site_label
_atom_site_type_symbol
_atom_site_fract_x
_atom_site_fract_y
_atom_site_fract_z
H1    H     0.97298584031150 0.15564956958478 0.28807398972951 
H2    H     0.04256560030734 0.99742550982420 0.16810518007174 
H3    H     0.91472806989157 0.27441899958659 0.39403413014339 
H4    H     0.82934190021447 0.42233261966942 0.52207824005272 
H5    H     0.75971011946288 0.83924368966560 0.14662572986843 
H6    H     0.41531941028604 0.84037365987458 0.25053711974157 
H7    H     0.17388252925281 0.92999379006185 0.37657519995270 
H8    H     0.09313343946322 0.08676602012017 0.50053532985129 
H9    H     0.20108481935655 0.26029724015942 0.58873694023544 
H10   H     0.47374182044148 0.41729261019718 0.62023781000419 
C1    C     0.84840196942775 0.08782623977349 0.28087828019957 
C2    C     0.65189210052007 0.09100625957610 0.34124380025335 
C3    C     0.60642847926634 0.18100135980325 0.41550380036273 
C4    C     0.88829779029332 0.99828089965470 0.21265454030190 
C5    C     0.49318023963065 0.99993907044550 0.32892003035511 
C6    C     0.75723055021565 0.27102703012134 0.43544106028819 
C7    C     0.40247267949067 0.17812099016353 0.47253870017575 
C8    C     0.73153415032487 0.90855131984168 0.20119642008258 
C9    C     0.53705665032653 0.90978047032958 0.25863769974614 
C10   C     0.70983774021458 0.35434430041691 0.50768105014646 
C11   C     0.29163440935403 0.00039598998538 0.38797242980630 
C12   C     0.24757297013431 0.08637395039912 0.45637036974005 
C13   C     0.35711257943095 0.26472397968372 0.54557648992378 
C14   C     0.50813734042508 0.35164381984783 0.56335080977753 
