data_stdin
_audit_creation_method 'critic2'
_audit_creation_date 2023-8-11
_chemical_formula_sum 'C14 H10'
_cell_formula_units_Z 4
_cell_length_a        11.6217167000
_cell_length_b        10.6054959100
_cell_length_c         7.8441362400
_cell_angle_alpha        90.0000
_cell_angle_beta        90.0000
_cell_angle_gamma        90.0001
_cell_volume           966.821709
_space_group_crystal_system orthorhombic
_space_group_IT_number 29
_space_group_name_H-M_alt 'Pca2_1'
_space_group_name_Hall 'P 2c -2ac'
loop_
_symmetry_equiv_pos_site_id
_symmetry_equiv_pos_as_xyz
 1 'x,y,z'
 2 '-x,-y,-1/2+z'
 3 '-1/2-x,y,-1/2+z'
 4 '-1/2+x,-y,z'
loop_
_atom_site_label
_atom_site_type_symbol
_atom_site_fract_x
_atom_site_fract_y
_atom_site_fract_z
H1    H     0.42309765983273 0.52809379970668 0.08648174003269 
H2    H     0.48774952994995 0.30991296979941 0.06874006047127 
H3    H     0.36634307985266 0.70504550997897 0.07132313999116 
H4    H     0.30808743035160 0.92725792026890 0.07309299947109 
H5    H     0.67435585967334 0.25668633957466 0.92651984024830 
H6    H     0.79683035008223 0.42820649975166 0.80950872057500 
H7    H     0.83443929993219 0.65070868016848 0.76110868940382 
H8    H     0.77600938011353 0.87363713027927 0.78097792985075 
H9    H     0.63659617979322 0.03418434952923 0.86665442016552 
H10   H     0.44422728962327 0.09449713967380 0.97689146044079 
C1    C     0.50449872016950 0.50818243985611 0.02393252987116 
C2    C     0.57166304032024 0.60766840969864 0.95709859046715 
C3    C     0.53528674982056 0.73864331035422 0.96339006055025 
C4    C     0.54103515986598 0.38409035004551 0.01416245985359 
C5    C     0.68014744000862 0.57746686978235 0.88166043055424 
C6    C     0.42619341037919 0.77587474988927 0.02512637017250 
C7    C     0.61137994994889 0.83434914996816 0.90233577016381 
C8    C     0.64643432993473 0.35443903023250 0.93550552942970 
C9    C     0.71492840005874 0.44984981001672 0.87060256980130 
C10   C     0.39334004995465 0.90136116972547 0.02705923986112 
C11   C     0.75235576992666 0.67624103983404 0.81818584009816 
C12   C     0.71987991025472 0.79955332042847 0.82961428042719 
C13   C     0.57718905006617 0.96219872014701 0.91171219006218 
C14   C     0.46985454993658 0.99585263008715 0.97219005998314 
