data_stdin
_audit_creation_method 'critic2'
_audit_creation_date 2023-8-11
_chemical_formula_sum 'C14 H10'
_cell_formula_units_Z 4
_cell_length_a         5.8898118599
_cell_length_b        19.6410056708
_cell_length_c         8.4262787600
_cell_angle_alpha        89.9999
_cell_angle_beta        90.0000
_cell_angle_gamma        89.9958
_cell_volume           974.767329
_space_group_crystal_system orthorhombic
_space_group_IT_number 33
_space_group_name_H-M_alt 'Pna2_1'
_space_group_name_Hall 'P 2c -2n'
loop_
_symmetry_equiv_pos_site_id
_symmetry_equiv_pos_as_xyz
 1 'x,y,z'
 2 '-x,-y,-1/2+z'
 3 '-1/2-x,-1/2+y,-1/2+z'
 4 '-1/2+x,-1/2-y,z'
loop_
_atom_site_label
_atom_site_type_symbol
_atom_site_fract_x
_atom_site_fract_y
_atom_site_fract_z
H1    H     0.85315847961967 0.05088876992443 0.98205412987362 
H2    H     0.87691513061162 0.17455777016216 0.97077749002890 
H3    H     0.85283922041343 0.94921189018639 0.98242301019928 
H4    H     0.87668924930655 0.82554556993412 0.97095991033418 
H5    H     0.19866466954389 0.23633763020392 0.10097440956633 
H6    H     0.50148044930154 0.17009335019640 0.23816300024821 
H7    H     0.66787993998708 0.06284598012938 0.31739846956820 
H8    H     0.66795383084440 0.93719878997197 0.31730822997676 
H9    H     0.50168695069269 0.82998248025320 0.23785834033904 
H10   H     0.19895104928084 0.76375156014105 0.10054854985745 
C1    C     0.99615045001047 0.07596233982315 0.03874253022404 
C2    C     0.16720421045315 0.03702624977916 0.11355770972775 
C3    C     0.16721820987249 0.96305306985160 0.11353383031426 
C4    C     0.00840289929840 0.14634661016617 0.03329700025077 
C5    C     0.35216269926562 0.07232713022758 0.18613687980727 
C6    C     0.99604179961790 0.92413091992099 0.03885250959073 
C7    C     0.35226252925986 0.92773770981138 0.18600742949822 
C8    C     0.19080013958867 0.18097972975211 0.10505305012953 
C9    C     0.35926932004765 0.14429259997976 0.18113440008373 
C10   C     0.00835878013328 0.85374839981813 0.03328866993423 
C11   C     0.53014828019064 0.03475275000651 0.26155367973624 
C12   C     0.53018726071430 0.96529938998197 0.26150290980030 
C13   C     0.35946130077080 0.85577512976076 0.18086080958424 
C14   C     0.19094228958045 0.81910569009172 0.10480819051086 
