data_stdin
_audit_creation_method 'critic2'
_audit_creation_date 2023-8-11
_chemical_formula_sum 'C14 H10'
_cell_formula_units_Z 2
_cell_length_a         8.4036918645
_cell_length_b         6.3690849702
_cell_length_c        13.9758627082
_cell_angle_alpha        89.9995
_cell_angle_beta        40.0723
_cell_angle_gamma        89.9996
_cell_volume           481.554290
_space_group_crystal_system monoclinic
_space_group_IT_number 4
_space_group_name_H-M_alt 'P2_1'
_space_group_name_Hall 'P 2yb'
loop_
_symmetry_equiv_pos_site_id
_symmetry_equiv_pos_as_xyz
 1 'x,y,z'
 2 '-x,-1/2+y,-z'
loop_
_atom_site_label
_atom_site_type_symbol
_atom_site_fract_x
_atom_site_fract_y
_atom_site_fract_z
H1    H     0.08867018100341 0.09339430026726 0.58708561946262 
H2    H     0.37263489022694 0.33662301941204 0.53610912010696 
H3    H     0.87217004935377 0.88288991957549 0.62220008013021 
H4    H     0.59450295042780 0.62325385035482 0.67837868955683 
H5    H     0.51304171943209 0.26914795965876 0.63791577024283 
H6    H     0.35538715017863 0.95787923055661 0.79865191987730 
H7    H     0.10777178036682 0.63656635990270 0.91857764955981 
H8    H     0.83617616021131 0.37799067035682 0.96384033027990 
H9    H     0.60133518975088 0.26218678952893 0.93549329983305 
H10   H     0.45233867981862 0.31187335010485 0.83802559005736 
C1    C     0.14811103995971 0.05940404008537 0.63240879004998 
C2    C     0.05966258100819 0.87782549983855 0.72010767947732 
C3    C     0.89777550073848 0.72665221931439 0.74849782976546 
C4    C     0.30804198054422 0.19770080979916 0.60350797003639 
C5    C     0.13504129877130 0.84273598944473 0.78215862056212 
C6    C     0.81425262060934 0.74860488061401 0.69149327978817 
C7    C     0.81821638913863 0.54670158001978 0.83779089055602 
C8    C     0.38513286018697 0.16062870953151 0.66267326953863 
C9    C     0.29769594020925 0.98711608927264 0.75173127954572 
C10   C     0.65762115986375 0.60155529977720 0.72266113001358 
C11   C     0.04888051961104 0.66071826068675 0.87190080029820 
C12   C     0.89790405074302 0.51835998056352 0.89784092973468 
C13   C     0.65952152042933 0.39834409058739 0.86738751992650 
C14   C     0.57830823060135 0.42543447932214 0.81180949947667 
