data_stdin
_audit_creation_method 'critic2'
_audit_creation_date 2023-8-11
_chemical_formula_sum 'C14 H10'
_cell_formula_units_Z 8
_cell_length_a        19.9120367405
_cell_length_b         5.7006687427
_cell_length_c        19.6909752856
_cell_angle_alpha        90.0006
_cell_angle_beta        58.3765
_cell_angle_gamma        89.9994
_cell_volume          1903.266375
_space_group_crystal_system monoclinic
_space_group_IT_number 15
_space_group_name_H-M_alt 'C2/c'
_space_group_name_Hall '-C 2yc'
loop_
_symmetry_equiv_pos_site_id
_symmetry_equiv_pos_as_xyz
 1 'x,y,z'
 2 '-x,-y,-z'
 3 '-x,y,-1/2-z'
 4 'x,-y,-1/2+z'
 5 '-1/2+x,-1/2+y,z'
 6 '-1/2-x,-1/2-y,-z'
 7 '-1/2-x,-1/2+y,-1/2-z'
 8 '-1/2+x,-1/2-y,-1/2+z'
loop_
_atom_site_label
_atom_site_type_symbol
_atom_site_fract_x
_atom_site_fract_y
_atom_site_fract_z
H1    H     0.19310183017006 0.63432491954656 0.70846346002896 
H2    H     0.07282534010736 0.62092883937197 0.70508146018589 
H3    H     0.29284680002083 0.63555878065668 0.70940940994915 
H4    H     0.41526642024392 0.62745018014983 0.70937279981011 
H5    H     0.04946201977227 0.29581208951967 0.63440024016519 
H6    H     0.15011993008519 0.98273662023624 0.56771115978342 
H7    H     0.27431311011282 0.80217230986037 0.53453481973861 
H8    H     0.39690950000170 0.80179623062234 0.53681408022254 
H9    H     0.48313916023034 0.98392230958071 0.57419331997860 
H10   H     0.51339371025434 0.30447699053978 0.63966792999032 
C1    C     0.18507023983760 0.49022925080845 0.67725925018897 
C2    C     0.24343204993068 0.31466563016266 0.63979747979469 
C3    C     0.31593981004417 0.31560479992481 0.64076840020254 
C4    C     0.11652054016411 0.48289777933368 0.67539637993680 
C5    C     0.22963488985055 0.12789206914642 0.60021263023492 
C6    C     0.33399553008260 0.49262969079860 0.67899379028012 
C7    C     0.37128736016240 0.12898335972445 0.60254308984443 
C8    C     0.10335727976945 0.29978016020060 0.63582969023622 
C9    C     0.15932483015677 0.12511206031083 0.59888341985844 
C10   C     0.40374156975782 0.48895088040061 0.67872221009342 
C11   C     0.28674227008084 0.94466126063303 0.56307590022849 
C12   C     0.35450827001569 0.94422991984451 0.56433173983013 
C13   C     0.44195273975624 0.12848729057046 0.60322214003942 
C14   C     0.45852196966318 0.30656794965402 0.64000220016617 
