data_stdin
_audit_creation_method 'critic2'
_audit_creation_date 2023-8-11
_chemical_formula_sum 'C14 H10'
_cell_formula_units_Z 4
_cell_length_a        16.1866339600
_cell_length_b         9.5202806310
_cell_length_c         6.3811314635
_cell_angle_alpha        89.9998
_cell_angle_beta        90.0018
_cell_angle_gamma        89.9991
_cell_volume           983.340639
_space_group_crystal_system orthorhombic
_space_group_IT_number 33
_space_group_name_H-M_alt 'Pna2_1'
_space_group_name_Hall 'P 2c -2n'
loop_
_symmetry_equiv_pos_site_id
_symmetry_equiv_pos_as_xyz
 1 'x,y,z'
 2 '-x,-y,-1/2+z'
 3 '-1/2-x,-1/2+y,-1/2+z'
 4 '-1/2+x,-1/2-y,z'
loop_
_atom_site_label
_atom_site_type_symbol
_atom_site_fract_x
_atom_site_fract_y
_atom_site_fract_z
H1    H     0.20345495017960 0.48768591005346 0.99044622980013 
H2    H     0.25233400028780 0.72833124005937 0.94076874043239 
H3    H     0.15668270986218 0.29633771030694 0.02791135975507 
H4    H     0.10173152018925 0.06144800981462 0.09207967952465 
H5    H     0.22556874989985 0.91105406042897 0.21134561967308 
H6    H     0.15178841008243 0.84637808048469 0.54037616067817 
H7    H     0.08125266970505 0.67288148950968 0.75821942016022 
H8    H     0.03118074969768 0.43177279031239 0.81639764943118 
H9    H     0.00974469969341 0.19339087977459 0.69480015963019 
H10   H     0.02786951022133 0.00645191049153 0.42594055043470 
C1    C     0.19193205983107 0.56460903051472 0.11253996029317 
C2    C     0.14854551008501 0.52472562955919 0.29495746950550 
C3    C     0.11676732027678 0.38362660002670 0.32643250057964 
C4    C     0.21920162005821 0.70092201993490 0.08327185024371 
C5    C     0.13458265992041 0.62904013987508 0.45226473031334 
C6    C     0.12501032993503 0.27594165037668 0.17503320964197 
C7    C     0.07448588973796 0.35167075986377 0.51712175028061 
C8    C     0.20433084012473 0.80383470031539 0.23691177009229 
C9    C     0.16301218980113 0.76793427040979 0.41913478017493 
C10   C     0.09372553025166 0.14262878037680 0.21060367003251 
C11   C     0.09149064010433 0.59212334986995 0.64015759059800 
C12   C     0.06342586974438 0.45867831994691 0.67212815064502 
C13   C     0.04269638027225 0.21488115947858 0.54932801014385 
C14   C     0.05225315990220 0.11149138049588 0.39903261070301 
