data_stdin
_audit_creation_method 'critic2'
_audit_creation_date 2023-8-11
_chemical_formula_sum 'C14 H10'
_cell_formula_units_Z 8
_cell_length_a        37.9551117546
_cell_length_b         6.0385190150
_cell_length_c         8.3166418348
_cell_angle_alpha        90.0010
_cell_angle_beta        90.0021
_cell_angle_gamma        89.9938
_cell_volume          1906.113285
_space_group_crystal_system orthorhombic
_space_group_IT_number 61
_space_group_name_H-M_alt 'Pbca'
_space_group_name_Hall '-P 2ac 2ab'
loop_
_symmetry_equiv_pos_site_id
_symmetry_equiv_pos_as_xyz
 1 'x,y,z'
 2 '-x,-y,-z'
 3 '-1/2+x,-1/2-y,-z'
 4 '-1/2-x,-1/2+y,z'
 5 '-x,-1/2+y,-1/2-z'
 6 'x,-1/2-y,-1/2+z'
 7 '-1/2-x,-y,-1/2+z'
 8 '-1/2+x,y,-1/2-z'
loop_
_atom_site_label
_atom_site_type_symbol
_atom_site_fract_x
_atom_site_fract_y
_atom_site_fract_z
H1    H     0.85785469991567 0.10644874951683 0.92967582965133 
H2    H     0.79543905989415 0.11561937995935 0.86161720048034 
H3    H     0.90983449009458 0.11665791032314 0.97885908019133 
H4    H     0.97278459993594 0.14928419994161 0.03323458987744 
H5    H     0.75722389002410 0.42890008990058 0.95251875975193 
H6    H     0.78348236991616 0.73522123001810 0.11342923046433 
H7    H     0.83360005997364 0.91205480057331 0.23804033041181 
H8    H     0.89730179989890 0.92491560919241 0.29680798030874 
H9    H     0.95539491986979 0.76987641929031 0.27732562973297 
H10   H     0.99661031004595 0.47775469066841 0.18178447052935 
C1    C     0.84207321995057 0.24537413075798 0.97108402955043 
C2    C     0.85785469005463 0.41886004943913 0.05943401964624 
C3    C     0.89534890005538 0.42616899970328 0.09495355053347 
C4    C     0.80650814007897 0.24909903016404 0.93350819992786 
C5    C     0.83596139009225 0.59800969925965 0.11094895996032 
C6    C     0.91926859994604 0.26038777985091 0.04469172034769 
C7    C     0.90912392012484 0.61276805068201 0.17993705044538 
C8    C     0.78506640990513 0.42613548959995 0.98401685031905 
C9    C     0.79966147987887 0.59715299981614 0.07242959051736 
C10   C     0.95503505010603 0.27845715947973 0.07558060016750 
C11   C     0.85085710996281 0.77843627015335 0.19914703049918 
C12   C     0.88603217004956 0.78574622017711 0.23166604972061 
C13   C     0.94568386987144 0.62640619978735 0.21132647954736 
C14   C     0.96845285010490 0.46266947917877 0.15945736989243 
