data_stdin
_audit_creation_method 'critic2'
_audit_creation_date 2023-8-11
_chemical_formula_sum 'C14 H10'
_cell_formula_units_Z 4
_cell_length_a        13.2187303732
_cell_length_b         4.8596480682
_cell_length_c        19.6104989713
_cell_angle_alpha        90.0440
_cell_angle_beta        48.8258
_cell_angle_gamma        90.0393
_cell_volume           948.225049
_space_group_crystal_system triclinic
_space_group_IT_number 2
_space_group_name_H-M_alt 'P-1'
_space_group_name_Hall '-P 1'
loop_
_symmetry_equiv_pos_site_id
_symmetry_equiv_pos_as_xyz
 1 'x,y,z'
 2 '-x,-y,-z'
loop_
_atom_site_label
_atom_site_type_symbol
_atom_site_fract_x
_atom_site_fract_y
_atom_site_fract_z
H1    H     0.92371632977836 0.80921146910620 0.52986198983682 
H2    H     0.07637195012022 0.30942845925524 0.97027211980947 
H3    H     0.93328714032215 0.68857385989827 0.64660936995941 
H4    H     0.06662721043168 0.18893444056577 0.85354657992805 
H5    H     0.92501311969773 0.87348896026892 0.42906574994774 
H6    H     0.07518839943051 0.37349597962130 0.07104750023272 
H7    H     0.91675667966012 0.95269144096377 0.30950559033371 
H8    H     0.08355546038394 0.45244925908247 0.19059446997409 
H9    H     0.78784911977076 0.31505572040937 0.75782323991237 
H10   H     0.21184474973234 0.81535525911144 0.74222588016331 
H11   H     0.62910184964776 0.06925768994933 0.75146262024553 
H12   H     0.37059818993154 0.56937256035363 0.74842912971373 
H13   H     0.52889367976006 0.00128919946614 0.68437880025664 
H14   H     0.47090892991769 0.50121921936009 0.81540044018423 
H15   H     0.51925657003172 0.10270729015817 0.56549759020227 
H16   H     0.48068618060836 0.60241860906251 0.93426565973607 
H17   H     0.60308687967530 0.34654574994101 0.42889459012820 
H18   H     0.39702001992962 0.84606819929799 0.07092481001658 
H19   H     0.75492761960965 0.68938405941741 0.30852037011657 
H20   H     0.24536087997130 0.18893854090517 0.19142808998904 
C1    C     0.85882641940878 0.64668498040399 0.57766965033653 
C2    C     0.14117428968908 0.14686945063995 0.92241352020899 
C3    C     0.77234635988676 0.50620455979519 0.57069065018131 
C4    C     0.22764786011808 0.00625625937091 0.92930790987522 
C5    C     0.76883436970581 0.56185177013745 0.49949969016682 
C6    C     0.23124561976510 0.06178116064076 0.00048114996874 
C7    C     0.86373022946811 0.58021481947596 0.64404323025616 
C8    C     0.13616796993821 0.08049250057612 0.85605508009278 
C9    C     0.68652826006591 0.29792731069361 0.63611558000714 
C10   C     0.31335799986231 0.79797995028489 0.86380626980099 
C11   C     0.85419127996129 0.75609307062342 0.42989863020450 
C12   C     0.14598398966886 0.25600075965507 0.07015530019153 
C13   C     0.67670915997806 0.41242657907067 0.49850217003126 
C14   C     0.32334650962896 0.91223052993150 0.00139456003973 
C15   C     0.78159153967258 0.36987594008820 0.70687027023468 
C16   C     0.21818948048890 0.87011316949838 0.79316306979585 
C17   C     0.69365390997524 0.23241947948594 0.70318728020452 
C18   C     0.30612730942722 0.73256088946045 0.79675348033051 
C19   C     0.84997820041205 0.80091567092194 0.36208284974910 
C20   C     0.15026746982187 0.30068109978163 0.13796193002161 
C21   C     0.59451996031605 0.15651130969561 0.63311036004927 
C22   C     0.40535901994909 0.65645124045329 0.86672098997519 
C23   C     0.58916493026889 0.21282627026617 0.56745363991871 
C24   C     0.41079725985552 0.71263486960324 0.93236831986693 
C25   C     0.67399896033233 0.46202709957746 0.42868439001420 
C26   C     0.32612366018130 0.96166716951995 0.07120824017630 
C27   C     0.75896522011845 0.65293071901145 0.36143520982162 
C28   C     0.24125332004950 0.15256931980266 0.13852794031894 
