data_stdin
_audit_creation_method 'critic2'
_audit_creation_date 2023-8-11
_chemical_formula_sum 'C14 H10'
_cell_formula_units_Z 4
_cell_length_a         9.2285011306
_cell_length_b         5.9251003101
_cell_length_c        17.6956273209
_cell_angle_alpha        89.9997
_cell_angle_beta        89.9990
_cell_angle_gamma        90.0002
_cell_volume           967.593273
_space_group_crystal_system orthorhombic
_space_group_IT_number 19
_space_group_name_H-M_alt 'P2_12_12_1'
_space_group_name_Hall 'P 2ac 2ab'
loop_
_symmetry_equiv_pos_site_id
_symmetry_equiv_pos_as_xyz
 1 'x,y,z'
 2 '-1/2-x,-y,-1/2+z'
 3 '-x,-1/2+y,-1/2-z'
 4 '-1/2+x,-1/2-y,-z'
loop_
_atom_site_label
_atom_site_type_symbol
_atom_site_fract_x
_atom_site_fract_y
_atom_site_fract_z
H1    H     0.05592165970458 0.92028967920173 0.72104596024906 
H2    H     0.30121309980960 0.91590628935566 0.77201240976881 
H3    H     0.85823964945936 0.92554028061379 0.67508655004010 
H4    H     0.61516066966611 0.95246398922125 0.62143465014842 
H5    H     0.47781356962738 0.22018547939087 0.73783679021156 
H6    H     0.39846943949943 0.53671288063399 0.65555830993222 
H7    H     0.21211403043001 0.73108558029373 0.58482467026535 
H8    H     0.96306901045651 0.75033538032505 0.53337347981181 
H9    H     0.72264096046678 0.58965400023263 0.51897713021241 
H10   H     0.54417502046771 0.28311932057678 0.54233508976484 
C1    C     0.12935320006937 0.05611574980022 0.70585575991150 
C2    C     0.08161262996280 0.23217061991693 0.65810244004427 
C3    C     0.93585918985221 0.24130696084238 0.62713272013417 
C4    C     0.26904207963681 0.05278902001340 0.73457068018403 
C5    C     0.18101065988870 0.40992339036204 0.64102603997367 
C6    C     0.83127372968270 0.07138552974361 0.64056344991148 
C7    C     0.89481085997561 0.43063433031500 0.58191118022709 
C8    C     0.36761774948590 0.22516378941996 0.71599058012165 
C9    C     0.32356347953738 0.40122941972717 0.67009768977054 
C10   C     0.69317772014757 0.08623742081884 0.61026666981232 
C11   C     0.13493752971623 0.59570014991350 0.59536309014398 
C12   C     0.99758149035116 0.60640241036423 0.56723579006646 
C13   C     0.75254061045403 0.44268938083442 0.55243787004791 
C14   C     0.65293485046235 0.27313388973741 0.56587538995706 
