data_stdin
_audit_creation_method 'critic2'
_audit_creation_date 2023-8-11
_chemical_formula_sum 'C14 H10'
_cell_formula_units_Z 4
_cell_length_a        19.0269729600
_cell_length_b         5.9498829901
_cell_length_c         8.4056836402
_cell_angle_alpha        89.9997
_cell_angle_beta        90.0004
_cell_angle_gamma        89.9999
_cell_volume           951.592842
_space_group_crystal_system orthorhombic
_space_group_IT_number 29
_space_group_name_H-M_alt 'Pca2_1'
_space_group_name_Hall 'P 2c -2ac'
loop_
_symmetry_equiv_pos_site_id
_symmetry_equiv_pos_as_xyz
 1 'x,y,z'
 2 '-x,-y,-1/2+z'
 3 '-1/2-x,y,-1/2+z'
 4 '-1/2+x,-y,z'
loop_
_atom_site_label
_atom_site_type_symbol
_atom_site_fract_x
_atom_site_fract_y
_atom_site_fract_z
H1    H     0.54426155995310 0.10726771035938 0.01016125022390 
H2    H     0.41820030996023 0.16027424009523 0.98120295055852 
H3    H     0.64736922984580 0.05417911054925 0.03259153016522 
H4    H     0.77142939013552 0.96122415983432 0.07674966015815 
H5    H     0.34543332020383 0.88012866036222 0.83391218041018 
H6    H     0.40300172974526 0.54459643050130 0.71200636058595 
H7    H     0.50777504001810 0.32415298013223 0.65620781955626 
H8    H     0.63388814982045 0.25194361059670 0.69187087985954 
H9    H     0.74696017022406 0.35157385998588 0.80656057941966 
H10   H     0.82239377021250 0.60769379945096 0.96483365989707 
C1    C     0.51452867997567 0.98325949995097 0.94352736972913 
C2    C     0.54879306005332 0.79452552989707 0.87731446003907 
C3    C     0.62354343021888 0.75289719075246 0.89757351031910 
C4    C     0.44270319992597 0.01314022040554 0.92783150943601 
C5    C     0.50726020021905 0.63512144049949 0.79156360034672 
C6    C     0.66834669977558 0.89947370942194 0.98294396987614 
C7    C     0.65336010998845 0.55263174955290 0.83222995940670 
C8    C     0.40190485006812 0.85481218078643 0.84462926943362 
C9    C     0.43384987016622 0.66876629034231 0.77720784989315 
C10   C     0.73856421012874 0.84819907015488 0.00697629010540 
C11   C     0.54006559991319 0.44198484953753 0.72275152041306 
C12   C     0.61008139003316 0.40222777937664 0.74265689958107 
C13   C     0.72534781013393 0.50525546003009 0.85732838988747 
C14   C     0.76742686006368 0.64906860039964 0.94433608979919 
