data_stdin
_audit_creation_method 'critic2'
_audit_creation_date 2023-8-11
_chemical_formula_sum 'C14 H10'
_cell_formula_units_Z 4
_cell_length_a        11.8532046362
_cell_length_b         3.8977899716
_cell_length_c        20.5695574197
_cell_angle_alpha        90.0017
_cell_angle_beta        73.2451
_cell_angle_gamma        90.0000
_cell_volume           909.995029
_space_group_crystal_system monoclinic
_space_group_IT_number 14
_space_group_name_H-M_alt 'P2_1/c'
_space_group_name_Hall '-P 2ybc'
loop_
_symmetry_equiv_pos_site_id
_symmetry_equiv_pos_as_xyz
 1 'x,y,z'
 2 '-x,-y,-z'
 3 '-x,-1/2+y,-1/2-z'
 4 'x,-1/2-y,-1/2+z'
loop_
_atom_site_label
_atom_site_type_symbol
_atom_site_fract_x
_atom_site_fract_y
_atom_site_fract_z
H1    H     0.56558288958820 0.27999560010249 0.74891055003736 
H2    H     0.59552769000550 0.24221789068541 0.86108319979197 
H3    H     0.54135730004826 0.27985545939109 0.65705396977440 
H4    H     0.51875949998862 0.28273769892886 0.54266988013975 
H5    H     0.77778797040808 0.97242226990467 0.87609669985065 
H6    H     0.93061355016010 0.74736313071940 0.77526441004763 
H7    H     0.00598682973130 0.66115684900191 0.65360823991852 
H8    H     0.98052328005169 0.68899311035393 0.53885589978711 
H9    H     0.86089792039153 0.81992137027126 0.46388297997600 
H10   H     0.67746369979807 0.04712438896817 0.44493788977987 
C1    C     0.64567909994126 0.16022650973024 0.75373115980475 
C2    C     0.73049996973408 0.03309304937404 0.69549762012172 
C3    C     0.71473220995205 0.04441374066625 0.62808599023748 
C4    C     0.66270382962414 0.14010282955677 0.81744557023048 
C5    C     0.83593187985940 0.88756354930082 0.70398496999882 
C6    C     0.61210828025400 0.17694781939131 0.61552817019392 
C7    C     0.80586792039300 0.91510279026271 0.57184680989042 
C8    C     0.76555005018559 0.98975210100418 0.82571265999929 
C9    C     0.85074783962855 0.86630696964014 0.76964674016915 
C10   C     0.59886244994112 0.17862572924702 0.55083896987921 
C11   C     0.92558289005976 0.76578155873771 0.64596756975071 
C12   C     0.91126738015889 0.78030101014398 0.58262658022598 
C13   C     0.79050283003865 0.92028119018496 0.50619612998644 
C14   C     0.68845349997297 0.04821187987195 0.49567423009759 
