data_stdin
_audit_creation_method 'critic2'
_audit_creation_date 2023-8-11
_chemical_formula_sum 'C14 H10'
_cell_formula_units_Z 2
_cell_length_a         9.2792970855
_cell_length_b         6.3560880600
_cell_length_c         8.4159859602
_cell_angle_alpha        89.9999
_cell_angle_beta       104.2832
_cell_angle_gamma        90.0001
_cell_volume           481.031150
_space_group_crystal_system monoclinic
_space_group_IT_number 4
_space_group_name_H-M_alt 'P2_1'
_space_group_name_Hall 'P 2yb'
loop_
_symmetry_equiv_pos_site_id
_symmetry_equiv_pos_as_xyz
 1 'x,y,z'
 2 '-x,-1/2+y,-z'
loop_
_atom_site_label
_atom_site_type_symbol
_atom_site_fract_x
_atom_site_fract_y
_atom_site_fract_z
H1    H     0.12304041953727 0.00385640966650 0.00597654005999 
H2    H     0.17892479972033 0.74317050999347 0.22680969943927 
H3    H     0.08687331045963 0.21403249953164 0.82395230957120 
H4    H     0.03584122961487 0.45752693076930 0.59114950013430 
H5    H     0.33775843019032 0.43037148928531 0.20865861971569 
H6    H     0.43528544967635 0.38086115970386 0.96248032040390 
H7    H     0.46381025970327 0.49699292964947 0.70005253987026 
H8    H     0.41895219031834 0.75646713952103 0.47423797035699 
H9    H     0.29908352030005 0.07813906063765 0.34675492004537 
H10   H     0.13774332027560 0.38959253060072 0.34927071994880 
C1    C     0.19203242971052 0.86901770034212 0.99430494054991 
C2    C     0.24885752041614 0.84689779935344 0.85383043990751 
C3    C     0.22037618980983 0.99827106992676 0.72042458954146 
C4    C     0.22304423958770 0.72139202073451 0.11942713011101 
C5    C     0.33802049022704 0.66644696057728 0.84398820051399 
C6    C     0.13231170999580 0.17996552005105 0.71940328042252 
C7    C     0.28259759048209 0.96312058945503 0.58331788002176 
C8    C     0.31180756955009 0.54454540989387 0.10930189943935 
C9    C     0.36733703978382 0.51741885026520 0.97264245028146 
C10   C     0.10322341955581 0.31825532999729 0.58836961968136 
C11   C     0.39802853936635 0.63788104013133 0.70443211947105 
C12   C     0.37224689976787 0.78061653069301 0.57965340951567 
C13   C     0.25204499950009 0.10756369062733 0.45112446968271 
C14   C     0.16264541994417 0.28117737021977 0.45247343972165 
