data_stdin
_audit_creation_method 'critic2'
_audit_creation_date 2023-8-11
_chemical_formula_sum 'C14 H10'
_cell_formula_units_Z 8
_cell_length_a         5.9114924173
_cell_length_b         8.4902835710
_cell_length_c        40.0509784741
_cell_angle_alpha        89.9993
_cell_angle_beta        89.9940
_cell_angle_gamma        89.9986
_cell_volume          2010.168489
_space_group_crystal_system orthorhombic
_space_group_IT_number 60
_space_group_name_H-M_alt 'Pbcn'
_space_group_name_Hall '-P 2n 2ab'
loop_
_symmetry_equiv_pos_site_id
_symmetry_equiv_pos_as_xyz
 1 'x,y,z'
 2 '-x,-y,-z'
 3 '-1/2-x,-1/2-y,-1/2+z'
 4 '-1/2+x,-1/2+y,-1/2-z'
 5 '-1/2+x,-1/2-y,-z'
 6 '-1/2-x,-1/2+y,z'
 7 '-x,y,-1/2-z'
 8 'x,-y,-1/2+z'
loop_
_atom_site_label
_atom_site_type_symbol
_atom_site_fract_x
_atom_site_fract_y
_atom_site_fract_z
H1    H     0.11931109972489 0.98222367009469 0.41662787990901 
H2    H     0.16605382981927 0.03590425960581 0.47608823992716 
H3    H     0.09260830926429 0.94045749033860 0.36750356002840 
H4    H     0.07684051919942 0.88589676016140 0.30777511990566 
H5    H     0.50154213003485 0.18705966951502 0.49681838997655 
H6    H     0.78829489045200 0.28409681022716 0.45622215004230 
H7    H     0.93331282956002 0.30392170959769 0.40025404005582 
H8    H     0.90627594012588 0.24684461993915 0.34004038008705 
H9    H     0.71269861925486 0.12478791967493 0.29324701998508 
H10   H     0.38329153014711 0.97711341963406 0.26985450990995 
C1    C     0.26637380959084 0.04880300988708 0.42477091008225 
C2    C     0.42858581010996 0.10051609004546 0.40122011010361 
C3    C     0.41188123981624 0.06704542051666 0.36570782009770 
C4    C     0.29235027077404 0.07928195033647 0.45854611991165 
C5    C     0.62016076955116 0.18603885986467 0.41323911005479 
C6    C     0.22941349001797 0.98234565002280 0.35171420987909 
C7    C     0.58831109053547 0.11918280957646 0.34392381995441 
C8    C     0.48092467028583 0.16440654047429 0.47023749008582 
C9    C     0.64150388074181 0.21736790021852 0.44779045003817 
C10   C     0.21938822968232 0.95160390025475 0.31779278997187 
C11   C     0.79000034031975 0.23854708944263 0.39037882011370 
C12   C     0.77486421946648 0.20671346956676 0.35708647998371 
C13   C     0.57573926997002 0.08465356010334 0.30940397005798 
C14   C     0.39343714974231 0.00272782981092 0.29644840991993 
