data_stdin
_audit_creation_method 'critic2'
_audit_creation_date 2023-8-11
_chemical_formula_sum 'C14 H10'
_cell_formula_units_Z 2
_cell_length_a         9.7625659316
_cell_length_b         5.8829765800
_cell_length_c         8.4828350265
_cell_angle_alpha        90.0000
_cell_angle_beta        82.2527
_cell_angle_gamma        90.0000
_cell_volume           482.747172
_space_group_crystal_system monoclinic
_space_group_IT_number 7
_space_group_name_H-M_alt 'Pc'
_space_group_name_Hall 'P -2yc'
loop_
_symmetry_equiv_pos_site_id
_symmetry_equiv_pos_as_xyz
 1 'x,y,z'
 2 'x,-y,-1/2+z'
loop_
_atom_site_label
_atom_site_type_symbol
_atom_site_fract_x
_atom_site_fract_y
_atom_site_fract_z
H1    H     0.01129991016118 0.85140741015128 0.98742103021292 
H2    H     0.25679004018948 0.85043148972994 0.88991276048951 
H3    H     0.80741169001892 0.86794588948397 0.06335860984183 
H4    H     0.56005445949276 0.90785128984659 0.15184685019356 
H5    H     0.41050721969681 0.16599611942677 0.95937438023159 
H6    H     0.30843677980757 0.48640372915886 0.12787470991048 
H7    H     0.11253038995296 0.66999581066837 0.28218978014288 
H8    H     0.86247704006935 0.68918288013696 0.37581149047620 
H9    H     0.63218116001111 0.53773455010837 0.38768841959267 
H10   H     0.46901505031533 0.24294484051926 0.31454891981459 
C1    C     0.07430325962148 0.99139289971340 0.02035600011361 
C2    C     0.01360169023978 0.17030672027216 0.11653554974437 
C3    C     0.86627176976515 0.18148714066148 0.17240736952564 
C4    C     0.21447038949851 0.99014915964544 0.96515808009382 
C5    C     0.10111008014474 0.35078626988888 0.15567204984944 
C6    C     0.77126058977581 0.01517484074053 0.13451470980276 
C7    C     0.81343544034377 0.37281460076074 0.26513143970583 
C8    C     0.30037739016961 0.16837129951070 0.00329814968252 
C9    C     0.24384161020085 0.34617962951153 0.09727507004483 
C10   C     0.63082946031532 0.03728944045430 0.18465233980977 
C11   C     0.04379812951386 0.53576225917486 0.25224481013250 
C12   C     0.90561458046244 0.54644842963370 0.30427391039743 
C13   C     0.66979639039359 0.39064947983297 0.31639089970054 
C14   C     0.57947394985597 0.22615428970732 0.27620818022137 
