data_stdin
_audit_creation_method 'critic2'
_audit_creation_date 2023-8-11
_chemical_formula_sum 'C14 H10'
_cell_formula_units_Z 8
_cell_length_a        19.7865572406
_cell_length_b         5.8323541528
_cell_length_c        17.0930870315
_cell_angle_alpha        90.0020
_cell_angle_beta        81.9037
_cell_angle_gamma        90.0006
_cell_volume          1952.918901
_space_group_crystal_system monoclinic
_space_group_IT_number 15
_space_group_name_H-M_alt 'C2/c'
_space_group_name_Hall '-C 2yc'
loop_
_symmetry_equiv_pos_site_id
_symmetry_equiv_pos_as_xyz
 1 'x,y,z'
 2 '-x,-y,-z'
 3 '-x,y,-1/2-z'
 4 'x,-y,-1/2+z'
 5 '-1/2+x,-1/2+y,z'
 6 '-1/2-x,-1/2-y,-z'
 7 '-1/2-x,-1/2+y,-1/2-z'
 8 '-1/2+x,-1/2-y,-1/2+z'
loop_
_atom_site_label
_atom_site_type_symbol
_atom_site_fract_x
_atom_site_fract_y
_atom_site_fract_z
H1    H     0.32331214013795 0.78554354005191 0.28934945996725 
H2    H     0.44582673012369 0.79516796082431 0.29210652012373 
H3    H     0.22250964018738 0.78630145079576 0.28940826001833 
H4    H     0.09895694998508 0.79258881080276 0.29296572971444 
H5    H     0.49900082978636 0.11423935920626 0.36003185997598 
H6    H     0.42526336974284 0.42647787076895 0.42466962017904 
H7    H     0.31468576006007 0.60469088061823 0.45820782999123 
H8    H     0.18952072981293 0.60214509973534 0.45962337979658 
H9    H     0.08683123015193 0.41889639014046 0.42855424983949 
H10   H     0.02896403012510 0.10576933957858 0.36477019981521 
C1    C     0.34449410985555 0.92731323037274 0.31925686984610 
C2    C     0.30145261999853 0.10160065975757 0.35567847975284 
C3    C     0.22792889986577 0.10051026004717 0.35633738979671 
C4    C     0.41426957991861 0.93212559950037 0.32096183024463 
C5    C     0.33192518020076 0.28553410061048 0.39341816990847 
C6    C     0.19371392980516 0.92599727945902 0.32006701973129 
C7    C     0.18810948015319 0.28269609055136 0.39503692028016 
C8    C     0.44410578990871 0.11211730004773 0.35899901019866 
C9    C     0.40324928984034 0.28635438073830 0.39445428996385 
C10   C     0.12340399979907 0.92834241055624 0.32255527994397 
C11   C     0.29002661990603 0.46611262004365 0.43034380021828 
C12   C     0.22109245004810 0.46476096075767 0.43112849023695 
C13   C     0.11637698022053 0.28015546085466 0.39770356998478 
C14   C     0.08425732009142 0.10542032990866 0.36238040000921 
