data_stdin
_audit_creation_method 'critic2'
_audit_creation_date 2023-8-11
_chemical_formula_sum 'C14 H10'
_cell_formula_units_Z 4
_cell_length_a         9.5543746200
_cell_length_b        16.8157171001
_cell_length_c         5.8671346802
_cell_angle_alpha        90.0003
_cell_angle_beta        89.9999
_cell_angle_gamma        90.0003
_cell_volume           942.635335
_space_group_crystal_system orthorhombic
_space_group_IT_number 33
_space_group_name_H-M_alt 'Pna2_1'
_space_group_name_Hall 'P 2c -2n'
loop_
_symmetry_equiv_pos_site_id
_symmetry_equiv_pos_as_xyz
 1 'x,y,z'
 2 '-x,-y,-1/2+z'
 3 '-1/2-x,-1/2+y,-1/2+z'
 4 '-1/2+x,-1/2-y,z'
loop_
_atom_site_label
_atom_site_type_symbol
_atom_site_fract_x
_atom_site_fract_y
_atom_site_fract_z
H1    H     0.51231306964174 0.41355407978688 0.99755305073223 
H2    H     0.64745249987487 0.29161685022861 0.02692390021134 
H3    H     0.38918238018408 0.50968423994324 0.97505015035113 
H4    H     0.24038577947978 0.62653591988268 0.93365717993719 
H5    H     0.63099412999463 0.18661229996864 0.72507053000525 
H6    H     0.47718944051843 0.20834140007873 0.39212295956549 
H7    H     0.30892977980251 0.28899944987938 0.18233863037872 
H8    H     0.16209983967907 0.40942054003843 0.14842598029396 
H9    H     0.07943390012339 0.53539322019872 0.29782450082534 
H10   H     0.08447393004693 0.64118575983284 0.59048929990262 
C1    C     0.50138369041909 0.36919659014847 0.86414700029320 
C2    C     0.40924576981371 0.38222878999144 0.67962653969028 
C3    C     0.32207275036075 0.45283228992804 0.66064928016276 
C4    C     0.57870816002812 0.29976863022404 0.88110662979154 
C5    C     0.40142685016972 0.32273856996291 0.50600299948640 
C6    C     0.32185531982156 0.51400271023497 0.82625727932624 
C7    C     0.23200950007646 0.46127619001688 0.46740496032024 
C8    C     0.56922073988653 0.24080498009688 0.71204290070043 
C9    C     0.48277268985026 0.25290679986764 0.52619435000534 
C10   C     0.23713501980546 0.58042056988952 0.80325666040264 
C11   C     0.31090869039280 0.33438736003760 0.31455350018735 
C12   C     0.22984756988275 0.40078406019737 0.29559757033707 
C13   C     0.14671084992058 0.52967428003227 0.44700802039001 
C14   C     0.14926700023932 0.58841031989482 0.61189333052325 
