data_stdin
_audit_creation_method 'critic2'
_audit_creation_date 2023-8-11
_chemical_formula_sum 'C14 H10'
_cell_formula_units_Z 4
_cell_length_a         4.5085098729
_cell_length_b        15.9463681817
_cell_length_c        12.9227727001
_cell_angle_alpha        89.9999
_cell_angle_beta        89.9991
_cell_angle_gamma        89.9990
_cell_volume           929.074452
_space_group_crystal_system orthorhombic
_space_group_IT_number 19
_space_group_name_H-M_alt 'P2_12_12_1'
_space_group_name_Hall 'P 2ac 2ab'
loop_
_symmetry_equiv_pos_site_id
_symmetry_equiv_pos_as_xyz
 1 'x,y,z'
 2 '-x,-1/2+y,-1/2-z'
 3 '-1/2+x,-1/2-y,-z'
 4 '-1/2-x,-y,-1/2+z'
loop_
_atom_site_label
_atom_site_type_symbol
_atom_site_fract_x
_atom_site_fract_y
_atom_site_fract_z
H1    H     0.11765021927328 0.68543029976639 0.53861777978066 
H2    H     0.76676543075933 0.58278056978494 0.46902802032200 
H3    H     0.36986234066093 0.77224495976160 0.60248798979019 
H4    H     0.71940223911595 0.87183443975738 0.68092329037392 
H5    H     0.58135797965907 0.46511789977589 0.58004045037478 
H6    H     0.76689348014054 0.45041694980798 0.75891197968602 
H7    H     0.08878221077654 0.49664624999997 0.90072366030577 
H8    H     0.44809866911870 0.59632430977061 0.97340463037474 
H9    H     0.74503415911938 0.72359060975168 0.95890760005265 
H10   H     0.91287396035294 0.84790140978118 0.85860834997264 
C1    C     0.04175148992530 0.63462742973694 0.58809604972708 
C2    C     0.14824179999855 0.62869441978752 0.69063030017025 
C3    C     0.35288092026950 0.68906340968851 0.73478452969584 
C4    C     0.84399874075006 0.57652240014267 0.54851911999524 
C5    C     0.05012850898720 0.55984010976375 0.75224861020231 
C6    C     0.45139947990390 0.76060407007203 0.68034115998033 
C7    C     0.45948630077944 0.67667718006065 0.83761477028224 
C8    C     0.74167166973283 0.50989810009028 0.61041235010894 
C9    C     0.84501660063401 0.50187324994550 0.71061616986996 
C10   C     0.64781215087627 0.81695813972087 0.72439975010921 
C11   C     0.16260180958973 0.55011310020811 0.85504275032495 
C12   C     0.36075951043481 0.60565144028556 0.89569688977640 
C13   C     0.66149158928308 0.73471627013304 0.88095006992198 
C14   C     0.75512288960164 0.80386936971537 0.82537433986239 
