data_stdin
_audit_creation_method 'critic2'
_audit_creation_date 2023-8-11
_chemical_formula_sum 'C14 H10'
_cell_formula_units_Z 8
_cell_length_a        39.2187183538
_cell_length_b         5.9638015445
_cell_length_c         8.3902497262
_cell_angle_alpha        90.0015
_cell_angle_beta        90.0196
_cell_angle_gamma        90.0175
_cell_volume          1962.417562
_space_group_crystal_system triclinic
_space_group_IT_number 2
_space_group_name_H-M_alt 'P-1'
_space_group_name_Hall '-P 1'
loop_
_symmetry_equiv_pos_site_id
_symmetry_equiv_pos_as_xyz
 1 'x,y,z'
 2 '-x,-y,-z'
loop_
_atom_site_label
_atom_site_type_symbol
_atom_site_fract_x
_atom_site_fract_y
_atom_site_fract_z
H1    H     0.39291535004411 0.35324056048851 0.94942027961432 
H2    H     0.89291599008770 0.14725722930264 0.05029616986583 
H3    H     0.60709295009304 0.35274818993424 0.55061474966209 
H4    H     0.10707422989879 0.14676240040216 0.44972631055788 
H5    H     0.45359235992514 0.36378244948752 0.00905862007587 
H6    H     0.95359452996182 0.13685805010829 0.99091166975382 
H7    H     0.54641372996511 0.36304928929357 0.49104001023299 
H8    H     0.04639898012013 0.13610550930782 0.50918793969116 
H9    H     0.34251408989990 0.36514476068964 0.91151161976110 
H10   H     0.84251541995110 0.13538309002821 0.08819439014355 
H11   H     0.65749722996488 0.36484521950203 0.58849163006370 
H12   H     0.15747308994339 0.13506456041614 0.41182240004382 
H13   H     0.28148064999817 0.38933563017822 0.85933812972761 
H14   H     0.78149091998125 0.11115645030187 0.14019577049332 
H15   H     0.71853056002349 0.38923888016847 0.64065541941309 
H16   H     0.21849684995523 0.11106033006446 0.35980121027250 
H17   H     0.48976374001363 0.68537616935950 0.91728409011905 
H18   H     0.98975037006659 0.81534140010664 0.08284043031528 
H19   H     0.51024530995126 0.68449903978255 0.58285964011304 
H20   H     0.01024068989441 0.81445361071404 0.41730971026161 
H21   H     0.46305378005016 0.99745357942505 0.76471847962648 
H22   H     0.96302065987412 0.50319662957775 0.23528865994451 
H23   H     0.53696417005712 0.99670824929920 0.73535229034986 
H24   H     0.03696147991526 0.50244949022086 0.26478227053489 
H25   H     0.41388254995305 0.16925061038224 0.64030228986399 
H26   H     0.91384045997716 0.33133845986364 0.35956245978425 
H27   H     0.58613876991078 0.16868885985274 0.85972129973788 
H28   H     0.08613983999345 0.33076548930426 0.14048748050415 
H29   H     0.35219829996631 0.17421853039407 0.58293310017744 
H30   H     0.85215506998758 0.32623262916554 0.41669994987697 
H31   H     0.64782443995071 0.17388061044937 0.91706601994993 
H32   H     0.14782326003716 0.32589850080831 0.08330985004797 
H33   H     0.29623263997509 0.00837244044934 0.60250031995733 
H34   H     0.79619892007042 0.49201677028356 0.39696377052737 
H35   H     0.70378763999163 0.00823552011935 0.89747673978876 
H36   H     0.20378111011075 0.49189752082444 0.10301226034385 
H37   H     0.25748594005322 0.70675311000368 0.70016687040282 
H38   H     0.75747309996370 0.79368717057311 0.29932708977213 
H39   H     0.74253042003697 0.70674273079435 0.79982113948023 
H40   H     0.24251045008706 0.79368536058916 0.20065948998687 
C1    C     0.40778817988317 0.49530106005792 0.90759998003572 
C2    C     0.90778110002743 0.00523301012715 0.09218667992682 
C3    C     0.59222290987754 0.49475880035738 0.59244001948283 
C4    C     0.09220771005048 0.00467999032153 0.40785275055159 
C5    C     0.39192966011147 0.67026528930168 0.82163876991590 
C6    C     0.89191374000585 0.83024742981503 0.17810229963042 
C7    C     0.60808493008764 0.66978404991207 0.67838441993126 
C8    C     0.10807185998609 0.82975554069145 0.32192814955750 
C9    C     0.35554126989780 0.67442378065022 0.78882099028405 
C10   C     0.85552613995665 0.82605467003647 0.21083814034408 
C11   C     0.64447388004872 0.67407090009650 0.71118869049178 
C12   C     0.14445892997483 0.82569472044767 0.28917988994131 
C13   C     0.44237344991133 0.50053081966544 0.94107171020636 
C14   C     0.94236797999877 0.00007904010467 0.05885283976335 
C15   C     0.55763597010293 0.49985317018882 0.55900302012522 
C16   C     0.05762267009099 0.99938466018389 0.44122578957292 
C17   C     0.41261585989301 0.85305092940398 0.76879939008204 
C18   C     0.91258975989934 0.64749668918360 0.23100903003211 
C19   C     0.58740122010729 0.85249680988878 0.73122793016804 
C20   C     0.08739362995343 0.64693163977066 0.26903213013803 
C21   C     0.33292561008812 0.50652415019339 0.84324636997424 
C22   C     0.83292226001178 0.99396291028824 0.15640922978690 
C23   C     0.66708741987470 0.50625367977318 0.65675865955564 
C24   C     0.16706452991795 0.99368284057249 0.34360279969846 
C25   C     0.34158531994848 0.85956448970678 0.70253170002385 
C26   C     0.84155875998284 0.64087969014676 0.29707079014261 
C27   C     0.65843275003067 0.85926189077659 0.79747022945341 
C28   C     0.15842375002409 0.64057480064422 0.20294044043590 
C29   C     0.46261918992663 0.68183003975942 0.89020880960531 
C30   C     0.96260453991593 0.81882727058164 0.10979711965431 
C31   C     0.53739236990030 0.68107445937205 0.60987841953516 
C32   C     0.03738410004263 0.81805801986732 0.39029815000983 
C33   C     0.44784726991111 0.85519744922550 0.80507190953792 
C34   C     0.94782186004127 0.64541877007665 0.19486913055891 
C35   C     0.55216858996585 0.85451129972333 0.69498434989593 
C36   C     0.05216238006619 0.64472195973233 0.30519583000620 
C37   C     0.29825093008607 0.51953250998383 0.81335976960591 
C38   C     0.79824701990757 0.98094441035612 0.18623896976633 
C39   C     0.70176284011591 0.51938043969846 0.68663815058313 
C40   C     0.20173937990018 0.98079072990989 0.31376144028326 
C41   C     0.39757351008252 0.03295315926202 0.68068415018726 
C42   C     0.89753756001002 0.46758486002259 0.31909676945236 
C43   C     0.60244661991934 0.03245541925140 0.81933187013436 
C44   C     0.10244344998539 0.46707840040596 0.18093756948439 
C45   C     0.36347867988261 0.03592170981841 0.64893255043985 
C46   C     0.86344221006457 0.46454872971582 0.35073237028385 
C47   C     0.63654177992896 0.03554342010830 0.85107320002400 
C48   C     0.13653821993391 0.46416890986210 0.14928538952367 
C49   C     0.30614267002702 0.86748078951207 0.67124220025406 
C50   C     0.80611774003263 0.63295094990567 0.32828403031775 
C51   C     0.69387545005925 0.86730227959340 0.82874716036341 
C52   C     0.19386425010187 0.63278044955264 0.17170943053521 
C53   C     0.28469865998091 0.69985719042271 0.72551104043858 
C54   C     0.78468383012481 0.80059631053912 0.27401543017554 
C55   C     0.71531757000164 0.69975162986605 0.77447957942210 
C56   C     0.21529983001129 0.80049849060897 0.22597497024624 
