data_stdin
_audit_creation_method 'critic2'
_audit_creation_date 2023-8-11
_chemical_formula_sum 'C14 H10'
_cell_formula_units_Z 8
_cell_length_a        19.7455982300
_cell_length_b        16.8038445500
_cell_length_c         5.8426651707
_cell_angle_alpha        89.9991
_cell_angle_beta        89.9997
_cell_angle_gamma        90.0000
_cell_volume          1938.607774
_space_group_crystal_system orthorhombic
_space_group_IT_number 61
_space_group_name_H-M_alt 'Pbca'
_space_group_name_Hall '-P 2ac 2ab'
loop_
_symmetry_equiv_pos_site_id
_symmetry_equiv_pos_as_xyz
 1 'x,y,z'
 2 '-x,-y,-z'
 3 '-x,-1/2+y,-1/2-z'
 4 'x,-1/2-y,-1/2+z'
 5 '-1/2-x,-y,-1/2+z'
 6 '-1/2+x,y,-1/2-z'
 7 '-1/2+x,-1/2-y,-z'
 8 '-1/2-x,-1/2+y,z'
loop_
_atom_site_label
_atom_site_type_symbol
_atom_site_fract_x
_atom_site_fract_y
_atom_site_fract_z
H1    H     0.26875922009707 0.96041310983592 0.67782839990769 
H2    H     0.39192760983875 0.95319451020527 0.67664025041941 
H3    H     0.16737749011073 0.96278099005795 0.68223723084775 
H4    H     0.04408273000862 0.96160317974831 0.69741720018052 
H5    H     0.45356269979211 0.87960393995101 0.98591693984373 
H6    H     0.38800211004147 0.81810708975505 0.30503604984359 
H7    H     0.28166025990385 0.79053750023594 0.49526256040698 
H8    H     0.15701774016953 0.79296769014910 0.50158784988405 
H9    H     0.04998988996453 0.82663814993215 0.32525006921720 
H10   H     0.98330573986189 0.89277670977555 0.01699475021651 
C1    C     0.29395418016728 0.92928772028156 0.81662773925778 
C2    C     0.25538183010595 0.89404793018132 0.99320416031045 
C3    C     0.18178477995507 0.89563209013597 0.99682287019895 
C4    C     0.36403186020721 0.92475981012145 0.81500592034475 
C5    C     0.29078110984280 0.85477841995344 0.17422088987806 
C6    C     0.14273960984765 0.93279624975757 0.82450268027383 
C7    C     0.14694842988659 0.85781009993581 0.18154504999888 
C8    C     0.39854653004177 0.88392693004759 0.98999931970561 
C9    C     0.36228140023592 0.84994560003780 0.16757945969533 
C10   C     0.07259110010871 0.93190310990939 0.83217583012774 
C11   C     0.25363169996099 0.81918140016333 0.35788375049579 
C12   C     0.18461767000932 0.82051639999348 0.36122649031639 
C13   C     0.07533292999290 0.85705127987023 0.18439332001091 
C14   C     0.03841586004524 0.89339513010397 0.01236861062222 
