data_stdin
_audit_creation_method 'critic2'
_audit_creation_date 2023-8-11
_chemical_formula_sum 'C14 H10'
_cell_formula_units_Z 8
_cell_length_a        14.2131623900
_cell_length_b         8.8536298800
_cell_length_c        15.5632235700
_cell_angle_alpha        90.0000
_cell_angle_beta        89.9999
_cell_angle_gamma        90.0000
_cell_volume          1958.446161
_space_group_crystal_system orthorhombic
_space_group_IT_number 60
_space_group_name_H-M_alt 'Pbcn'
_space_group_name_Hall '-P 2n 2ab'
loop_
_symmetry_equiv_pos_site_id
_symmetry_equiv_pos_as_xyz
 1 'x,y,z'
 2 '-x,-y,-z'
 3 '-1/2-x,-1/2-y,-1/2+z'
 4 '-1/2+x,-1/2+y,-1/2-z'
 5 '-1/2+x,-1/2-y,-z'
 6 '-1/2-x,-1/2+y,z'
 7 '-x,y,-1/2-z'
 8 'x,-y,-1/2+z'
loop_
_atom_site_label
_atom_site_type_symbol
_atom_site_fract_x
_atom_site_fract_y
_atom_site_fract_z
H1    H     0.77480384386020 0.50620818341433 0.50424422827335 
H2    H     0.75856146519626 0.34616624223416 0.37704759635796 
H3    H     0.78574189210226 0.64636210905423 0.60435267900322 
H4    H     0.79439432234042 0.81886030684904 0.72799443291669 
H5    H     0.61606453754917 0.36434218750650 0.28398609156709 
H6    H     0.48691900884520 0.54070516237086 0.32432222151919 
H7    H     0.41954786930805 0.72543910524511 0.41976848478979 
H8    H     0.43002215491649 0.89005001219022 0.54774092329674 
H9    H     0.51754342334282 0.98689152549468 0.66934045753565 
H10   H     0.66052008742978 0.98820094639120 0.76253507229141 
C1    C     0.71225010721799 0.51772716166002 0.46457294899422 
C2    C     0.64084826612070 0.62093312973607 0.48814828342522 
C3    C     0.64721469606557 0.71811072013598 0.56317928502907 
C4    C     0.70344099322758 0.42734445484763 0.39234772808020 
C5    C     0.55841345887235 0.62821171545465 0.43581033555008 
C6    C     0.72696240238997 0.72131553210705 0.61738384821258 
C7    C     0.57055879886962 0.81649301190570 0.58309417722714 
C8    C     0.62263943163352 0.43657453959970 0.34025097262157 
C9    C     0.55125919552780 0.53528497162955 0.36226580963009 
C10   C     0.73185200796946 0.81730679474222 0.68750277365883 
C11   C     0.48282688651289 0.72670645656504 0.45915338451217 
C12   C     0.48837881982119 0.81673372930907 0.52994489797308 
C13   C     0.57675344302204 0.91265715201179 0.65548805784920 
C14   C     0.65598594808002 0.91358864286968 0.70707443624671 
