data_stdin
_audit_creation_method 'critic2'
_audit_creation_date 2023-8-11
_chemical_formula_sum 'C14 H10'
_cell_formula_units_Z 4
_cell_length_a         4.5705171413
_cell_length_b        13.9119024328
_cell_length_c        15.2269689606
_cell_angle_alpha        90.0006
_cell_angle_beta        86.5576
_cell_angle_gamma        89.9967
_cell_volume           966.453626
_space_group_crystal_system monoclinic
_space_group_IT_number 14
_space_group_name_H-M_alt 'P2_1/c'
_space_group_name_Hall '-P 2ybc'
loop_
_symmetry_equiv_pos_site_id
_symmetry_equiv_pos_as_xyz
 1 'x,y,z'
 2 '-x,-y,-z'
 3 '-x,-1/2+y,-1/2-z'
 4 'x,-1/2-y,-1/2+z'
loop_
_atom_site_label
_atom_site_type_symbol
_atom_site_fract_x
_atom_site_fract_y
_atom_site_fract_z
H1    H     0.54621503989480 0.63225001016938 0.52158218976145 
H2    H     0.34475352094318 0.77474179970192 0.59803470006777 
H3    H     0.70987995087829 0.51979855966485 0.45463087031370 
H4    H     0.92092142912961 0.38376021966516 0.37009309998679 
H5    H     0.53097554909781 0.93812203972307 0.55762705027222 
H6    H     0.91828983961126 0.95677582025555 0.43687192981717 
H7    H     0.25599912902438 0.88887900004490 0.32602598027904 
H8    H     0.47200517960066 0.74833597034988 0.24617743996472 
H9    H     0.48853715053765 0.57658225017164 0.21872452994618 
H10   H     0.30735037020337 0.41074556975389 0.25073825028057 
C1    C     0.63130468947592 0.70265080983210 0.50258673021868 
C2    C     0.85135389000737 0.71091155964275 0.43366725005210 
C3    C     0.97269639039841 0.62858833971680 0.38544848009374 
C4    C     0.51836933983859 0.78285359025735 0.54640589005871 
C5    C     0.95514943980693 0.80480895034662 0.41038346008474 
C6    C     0.87899130943068 0.53336909976940 0.40293333982910 
C7    C     0.19552822032163 0.64362384971088 0.31691057970882 
C8    C     0.62204390039218 0.87525503980618 0.52326753019800 
C9    C     0.83659286972624 0.88571423999566 0.45601968026275 
C10   C     0.99718058981901 0.45643411972193 0.35533067003836 
C11   C     0.17967910941283 0.81637898035299 0.34165474004894 
C12   C     0.29661770088383 0.73907287027586 0.29720744991256 
C13   C     0.31432820954371 0.56388836979693 0.26945323027198 
C14   C     0.21627568934969 0.47164501011134 0.28792044994579 
