data_stdin
_audit_creation_method 'critic2'
_audit_creation_date 2023-8-11
_chemical_formula_sum 'C14 H10'
_cell_formula_units_Z 4
_cell_length_a         4.9707802920
_cell_length_b        19.9375484201
_cell_length_c         9.7665943001
_cell_angle_alpha        89.9996
_cell_angle_beta        89.9983
_cell_angle_gamma        89.9994
_cell_volume           967.920015
_space_group_crystal_system orthorhombic
_space_group_IT_number 33
_space_group_name_H-M_alt 'Pna2_1'
_space_group_name_Hall 'P 2c -2n'
loop_
_symmetry_equiv_pos_site_id
_symmetry_equiv_pos_as_xyz
 1 'x,y,z'
 2 '-x,-y,-1/2+z'
 3 '-1/2-x,-1/2+y,-1/2+z'
 4 '-1/2+x,-1/2-y,z'
loop_
_atom_site_label
_atom_site_type_symbol
_atom_site_fract_x
_atom_site_fract_y
_atom_site_fract_z
H1    H     0.45076225937205 0.71704703978742 0.00903562038646 
H2    H     0.59227622998286 0.71248574022891 0.77052260009071 
H3    H     0.34007188967769 0.71526142980125 0.20585539025287 
H4    H     0.18248601004719 0.71432674995004 0.44186728045937 
H5    H     0.37565096962167 0.63139610011979 0.60767380958872 
H6    H     0.01678078992396 0.55556675998023 0.69083775008882 
H7    H     0.72560662921357 0.51505546984889 0.87097678007976 
H8    H     0.56427875932773 0.51865461023070 0.11064318957200 
H9    H     0.59907314053565 0.56218926016709 0.34277805977128 
H10   H     0.81229207941737 0.63744406012112 0.51432049977708 
C1    C     0.35259930051802 0.68145897999614 0.94108684008754 
C2    C     0.14882089928224 0.63862110015288 0.99154037990319 
C3    C     0.06044802905515 0.63926985014463 0.13335105045553 
C4    C     0.43328985045932 0.67904869999900 0.80548694049378 
C5    C     0.02614410921911 0.59263733010515 0.89848462973634 
C6    C     0.17687685040303 0.68155705984355 0.23320397023485 
C7    C     0.84813707903339 0.59536143990865 0.17489055956071 
C8    C     0.31250799045417 0.63338745994528 0.71437289988087 
C9    C     0.11154698933070 0.59109333994966 0.76051872973512 
C10   C     0.08861885077343 0.68092874004932 0.36768657050557 
C11   C     0.81622609066529 0.54912189022644 0.94494106972110 
C12   C     0.72815992979779 0.55098116005145 0.07699377954765 
C13   C     0.76123658055250 0.59584519015046 0.31279199956911 
C14   C     0.87924070025011 0.63781343006468 0.40818250970509 
