data_stdin
_audit_creation_method 'critic2'
_audit_creation_date 2023-8-11
_chemical_formula_sum 'C14 H10'
_cell_formula_units_Z 8
_cell_length_a        15.3956139989
_cell_length_b         7.0119746400
_cell_length_c        19.3712479341
_cell_angle_alpha        90.0000
_cell_angle_beta        69.2718
_cell_angle_gamma        90.0000
_cell_volume          1955.834107
_space_group_crystal_system monoclinic
_space_group_IT_number 15
_space_group_name_H-M_alt 'C2/c'
_space_group_name_Hall '-C 2yc'
loop_
_symmetry_equiv_pos_site_id
_symmetry_equiv_pos_as_xyz
 1 'x,y,z'
 2 '-x,-y,-z'
 3 '-x,y,-1/2-z'
 4 'x,-y,-1/2+z'
 5 '-1/2+x,-1/2+y,z'
 6 '-1/2-x,-1/2-y,-z'
 7 '-1/2-x,-1/2+y,-1/2-z'
 8 '-1/2+x,-1/2-y,-1/2+z'
loop_
_atom_site_label
_atom_site_type_symbol
_atom_site_fract_x
_atom_site_fract_y
_atom_site_fract_z
H1    H     0.46392820990739 0.67699178050278 0.17248578008269 
H2    H     0.51846518989986 0.68250178014005 0.03718200982905 
H3    H     0.41579620032835 0.64206334968136 0.28195472975226 
H4    H     0.35167049026724 0.63328696943681 0.41730228976711 
H5    H     0.40619638999637 0.65917336980171 0.97142746001099 
H6    H     0.23724133016846 0.63469455070405 0.04379560004101 
H7    H     0.10906083016672 0.63343193008184 0.16003639007149 
H8    H     0.04836021978877 0.64198692018958 0.29670816022472 
H9    H     0.07423005968568 0.64164822014495 0.41307319025937 
H10   H     0.18063264010816 0.63546455022427 0.48405580976969 
C1    C     0.41337900014345 0.66637830065018 0.14518684989028 
C2    C     0.31777972002113 0.65266128063070 0.18782652992668 
C3    C     0.28239909998884 0.64871932025829 0.26791238017190 
C4    C     0.44450815012981 0.67047308975423 0.06882240974776 
C5    C     0.25375443988570 0.64436408011447 0.14972538992171 
C6    C     0.34090211985410 0.64442503933623 0.30995116019944 
C7    C     0.18440506963455 0.64681918983645 0.30654538015765 
C8    C     0.38112365975486 0.65789529046109 0.03155668016735 
C9    C     0.28724292003405 0.64429122000084 0.07176948992893 
C10   C     0.30499632982690 0.63965987002648 0.38625712993191 
C11   C     0.15619659971859 0.63928031012647 0.19074280002696 
C12   C     0.12284591019089 0.64339493040120 0.26594244027804 
C13   C     0.14921198998087 0.64407169040036 0.38454677021006 
C14   C     0.20833083983253 0.64031829986356 0.42400817998711 
