data_stdin
_audit_creation_method 'critic2'
_audit_creation_date 2023-8-11
_chemical_formula_sum 'C14 H10'
_cell_formula_units_Z 4
_cell_length_a        12.8442871125
_cell_length_b         5.1508116503
_cell_length_c        17.4824803470
_cell_angle_alpha        90.0001
_cell_angle_beta        54.5176
_cell_angle_gamma        90.0000
_cell_volume           941.824205
_space_group_crystal_system monoclinic
_space_group_IT_number 14
_space_group_name_H-M_alt 'P2_1/c'
_space_group_name_Hall '-P 2ybc'
loop_
_symmetry_equiv_pos_site_id
_symmetry_equiv_pos_as_xyz
 1 'x,y,z'
 2 '-x,-y,-z'
 3 '-x,-1/2+y,-1/2-z'
 4 'x,-1/2-y,-1/2+z'
loop_
_atom_site_label
_atom_site_type_symbol
_atom_site_fract_x
_atom_site_fract_y
_atom_site_fract_z
H1    H     0.42986993017023 0.19315805043314 0.52876145991145 
H2    H     0.52908813014171 0.08027677002199 0.60897451002841 
H3    H     0.32786023003071 0.25919901943418 0.47712620020545 
H4    H     0.21320742951641 0.37523718933338 0.40930657028683 
H5    H     0.46372858982106 0.30569483950564 0.75662841977048 
H6    H     0.30188408998624 0.65844543014366 0.82015188025224 
H7    H     0.15944137004800 0.94149985052247 0.80789057003788 
H8    H     0.05923177009008 0.06773568060678 0.72884882968657 
H9    H     0.02071653960196 0.99509914073111 0.61099587006184 
H10   H     0.05810586037649 0.74594795094094 0.47507957973152 
C1    C     0.40000833966224 0.29534911060138 0.59284840013081 
C2    C     0.30580923984501 0.49134264926254 0.62813587028762 
C3    C     0.24215771014540 0.55894860930858 0.58415855975333 
C4    C     0.45615329008944 0.23086567992515 0.63798770001641 
C5    C     0.27193202022397 0.62681831051149 0.71098764997065 
C6    C     0.26196669995696 0.42222239015022 0.50663349971337 
C7    C     0.15294537034007 0.76889391075328 0.62177412979976 
C8    C     0.41988172994133 0.35929981010099 0.72108718003700 
C9    C     0.32956370994712 0.55509993084337 0.75653584972468 
C10   C     0.19687867021633 0.48761543067811 0.46817481979639 
C11   C     0.18164510957401 0.83537329968318 0.74618783020394 
C12   C     0.12622490046191 0.90646249941266 0.70245141983990 
C13   C     0.08849258966797 0.83450368074719 0.58076621024713 
C14   C     0.10962966024071 0.69602502068852 0.50521166982082 
