data_stdin
_audit_creation_method 'critic2'
_audit_creation_date 2023-8-11
_chemical_formula_sum 'C14 H10'
_cell_formula_units_Z 4
_cell_length_a         9.4628213365
_cell_length_b        15.5126808100
_cell_length_c         6.5657119905
_cell_angle_alpha        90.0000
_cell_angle_beta        80.0485
_cell_angle_gamma        90.0000
_cell_volume           949.304193
_space_group_crystal_system monoclinic
_space_group_IT_number 14
_space_group_name_H-M_alt 'P2_1/c'
_space_group_name_Hall '-P 2ybc'
loop_
_symmetry_equiv_pos_site_id
_symmetry_equiv_pos_as_xyz
 1 'x,y,z'
 2 '-x,-y,-z'
 3 '-x,-1/2+y,-1/2-z'
 4 'x,-1/2-y,-1/2+z'
loop_
_atom_site_label
_atom_site_type_symbol
_atom_site_fract_x
_atom_site_fract_y
_atom_site_fract_z
H1    H     0.64463754031065 0.20533477023971 0.04430328977065 
H2    H     0.89707983993028 0.20450692970545 0.88758401989215 
H3    H     0.43868997985743 0.20674393013534 0.18108928030965 
H4    H     0.18942934047780 0.20408901012745 0.35658221956660 
H5    H     0.07993506017435 0.13634790009120 0.07228991051733 
H6    H     0.00194224973215 0.07149326981430 0.41832171927837 
H7    H     0.81540264030641 0.03743138018292 0.71196352955246 
H8    H     0.56167600989842 0.03726931022135 0.87840740957360 
H9    H     0.31109493017096 0.06858450984199 0.87181156927454 
H10   H     0.12167512006513 0.13314666991422 0.70044318037654 
C1    C     0.72086134049265 0.17541314994423 0.12857966945970 
C2    C     0.67306376006666 0.13854517972272 0.32505302065732 
C3    C     0.52318505967478 0.13873340024207 0.42391183001649 
C4    C     0.86456857039549 0.17476799989055 0.03867127049459 
C5    C     0.77755110006879 0.10061478002624 0.43072959037379 
C6    C     0.41330879984528 0.17594139997978 0.33176326967821 
C7    C     0.48440459008129 0.10053961984303 0.62396998021392 
C8    C     0.96686948040875 0.13656132004696 0.14238508034654 
C9    C     0.92334410052159 0.10021074031588 0.33554675000899 
C10   C     0.27161651036146 0.17455121027039 0.43080280977272 
C11   C     0.73378181046598 0.06450897012558 0.63224121033384 
C12   C     0.59336753952814 0.06445512975688 0.72443690036921 
C13   C     0.33891477020653 0.09912116974874 0.72064648028582 
C14   C     0.23364464976803 0.13519769986264 0.62548685947465 
