data_stdin
_audit_creation_method 'critic2'
_audit_creation_date 2023-8-11
_chemical_formula_sum 'C14 H10'
_cell_formula_units_Z 4
_cell_length_a         7.8122472429
_cell_length_b         5.4401604005
_cell_length_c        22.9148539408
_cell_angle_alpha        90.0009
_cell_angle_beta        88.7324
_cell_angle_gamma        90.0002
_cell_volume           973.640156
_space_group_crystal_system monoclinic
_space_group_IT_number 14
_space_group_name_H-M_alt 'P2_1/c'
_space_group_name_Hall '-P 2ybc'
loop_
_symmetry_equiv_pos_site_id
_symmetry_equiv_pos_as_xyz
 1 'x,y,z'
 2 '-x,-y,-z'
 3 '-x,-1/2+y,-1/2-z'
 4 'x,-1/2-y,-1/2+z'
loop_
_atom_site_label
_atom_site_type_symbol
_atom_site_fract_x
_atom_site_fract_y
_atom_site_fract_z
H1    H     0.01686968061456 0.64360484047080 0.78782560020994 
H2    H     0.75299249002747 0.62846520012245 0.73331604980984 
H3    H     0.22906884972285 0.64916576088251 0.83429643017547 
H4    H     0.49080362050753 0.63986580027626 0.89099203997988 
H5    H     0.53437198985309 0.30108739051929 0.75413041004737 
H6    H     0.58973501957135 0.98710897070143 0.82985441984271 
H7    H     0.77296240011584 0.80629670983547 0.90289038001680 
H8    H     0.03898142952059 0.80821466968787 0.95859755005482 
H9    H     0.31289707062886 0.99114502985732 0.98130404983637 
H10   H     0.53688964974437 0.31166656985689 0.96472987007104 
C1    C     0.92534873998250 0.49834601979588 0.79776747015993 
C2    C     0.96032550996918 0.32173263943943 0.84114027006953 
C3    C     0.11684905947132 0.32344068939540 0.87425245010460 
C4    C     0.77506250037356 0.49069677934412 0.76679346984599 
C5    C     0.83633941963814 0.13336602026853 0.85228862991780 
C6    C     0.24559879963067 0.50376523940537 0.86619128000646 
C7    C     0.14322478048319 0.13594040015924 0.91677201981196 
C8    C     0.65295952949038 0.30559988995980 0.77814337017490 
C9    C     0.68389623978927 0.12998813083155 0.82022409984952 
C10   C     0.39358693986894 0.49922630936012 0.89828269017264 
C11   C     0.86822002063217 0.94978902959568 0.89548938001773 
C12   C     0.01565350990878 0.95020762930666 0.92624240981401 
C13   C     0.29566195937036 0.13544347983363 0.94900747013958 
C14   C     0.41953610011955 0.31384729010773 0.93998653997712 
