data_stdin
_audit_creation_method 'critic2'
_audit_creation_date 2023-8-11
_chemical_formula_sum 'C14 H10'
_cell_formula_units_Z 4
_cell_length_a        19.6605389038
_cell_length_b         6.0434053847
_cell_length_c         8.2877100826
_cell_angle_alpha        90.0197
_cell_angle_beta        83.5924
_cell_angle_gamma        90.0036
_cell_volume           978.566151
_space_group_crystal_system triclinic
_space_group_IT_number 2
_space_group_name_H-M_alt 'P-1'
_space_group_name_Hall '-P 1'
loop_
_symmetry_equiv_pos_site_id
_symmetry_equiv_pos_as_xyz
 1 'x,y,z'
 2 '-x,-y,-z'
loop_
_atom_site_label
_atom_site_type_symbol
_atom_site_fract_x
_atom_site_fract_y
_atom_site_fract_z
H1    H     0.80709075004071 0.10934816920502 0.22077748006191 
H2    H     0.19290559984214 0.60957936987065 0.27890428008739 
H3    H     0.92955754017795 0.13037197974454 0.24277141951993 
H4    H     0.07043483976620 0.63072915045328 0.25702577987274 
H5    H     0.70715551022155 0.10672705062709 0.19871452964143 
H6    H     0.29277428987524 0.60716553067455 0.30144411947828 
H7    H     0.58539375020102 0.11773776956855 0.17026131994560 
H8    H     0.41454862995502 0.61792339918046 0.32981823983741 
H9    H     0.97926189001909 0.45454797019999 0.37375256036840 
H10   H     0.02075049982926 0.95507581042956 0.12632637052752 
H11   H     0.90267470019618 0.76041216034408 0.48583501001126 
H12   H     0.09735511019156 0.26088911063280 0.01445012979199 
H13   H     0.78973493987968 0.92177457030777 0.54084989007030 
H14   H     0.21036253988196 0.42198209034787 0.95921838018192 
H15   H     0.66562414020287 0.91428239004637 0.52008330970874 
H16   H     0.33447028019750 0.41417174917792 0.97980289971915 
H17   H     0.56600127027304 0.73973518048734 0.42665121956731 
H18   H     0.43406263999376 0.23967302051210 0.07346113953713 
H19   H     0.51249493006889 0.43057703944921 0.28635336999461 
H20   H     0.48750872014216 0.93054194065960 0.21369027989473 
C1    C     0.82688084000591 0.25245844954569 0.27974738998965 
C2    C     0.17311644021043 0.75277937045518 0.22012179961430 
C3    C     0.78213061001485 0.42278744018092 0.34186074020387 
C4    C     0.21787713009542 0.92313319936514 0.15817923050273 
C5    C     0.70907507025330 0.41903182948743 0.32830580993142 
C6    C     0.29092454025542 0.91930732053020 0.17178644985721 
C7    C     0.89646733024533 0.26435342039782 0.29146426967412 
C8    C     0.10353130991292 0.76471278956396 0.20842360048875 
C9    C     0.81065774001990 0.60832386945174 0.41755142057992 
C10   C     0.18936561003770 0.10872659985716 0.08261765960990 
C11   C     0.67724103001932 0.24624521012444 0.24987061035527 
C12   C     0.32272435976036 0.74653700046471 0.25023007973881 
C13   C     0.66764548003663 0.59986308015443 0.39234110965070 
C14   C     0.33238657990064 0.10002650026779 0.10777725998062 
C15   C     0.92443472015209 0.44773128977835 0.36527748008512 
C16   C     0.07557748023264 0.94817543997219 0.13478083954257 
C17   C     0.88204118981261 0.61731690040732 0.42742925977343 
C18   C     0.11798360979913 0.11775293996633 0.07273967998356 
C19   C     0.60781392974202 0.25118427924212 0.23478581009216 
C20   C     0.39215415990309 0.75134998027261 0.26529176044928 
C21   C     0.76688593024982 0.78352485032168 0.48232635960187 
C22   C     0.23318592016426 0.28375856020370 0.01772756010183 
C23   C     0.69822069001442 0.77918621018404 0.47092524055463 
C24   C     0.30184277017513 0.27928324008858 0.02914369941891 
C25   C     0.59671370018097 0.60047938067642 0.37646652049730 
C26   C     0.40331550010304 0.10053303951656 0.12364872028025 
C27   C     0.56704423009709 0.42881140992447 0.29867397972081 
C28   C     0.43295595975892 0.92885647045723 0.20140481986475 
