data_stdin
_audit_creation_method 'critic2'
_audit_creation_date 2023-8-11
_chemical_formula_sum 'C14 H10'
_cell_formula_units_Z 4
_cell_length_a         6.4218562838
_cell_length_b         5.2089972305
_cell_length_c        28.5796120847
_cell_angle_alpha        90.0014
_cell_angle_beta        95.5966
_cell_angle_gamma        90.0001
_cell_volume           951.471726
_space_group_crystal_system monoclinic
_space_group_IT_number 14
_space_group_name_H-M_alt 'P2_1/c'
_space_group_name_Hall '-P 2ybc'
loop_
_symmetry_equiv_pos_site_id
_symmetry_equiv_pos_as_xyz
 1 'x,y,z'
 2 '-x,-y,-z'
 3 '-x,-1/2+y,-1/2-z'
 4 'x,-1/2-y,-1/2+z'
loop_
_atom_site_label
_atom_site_type_symbol
_atom_site_fract_x
_atom_site_fract_y
_atom_site_fract_z
H1    H     0.01524698935771 0.39994250040643 0.82144442011696 
H2    H     0.98093451934138 0.06748937043880 0.76056396988863 
H3    H     0.03636257011759 0.66430792950468 0.87154019985134 
H4    H     0.05456760062375 0.98379330064296 0.93471399016372 
H5    H     0.66637931030270 0.77978593085169 0.75226842016312 
H6    H     0.39152339044001 0.83072602965489 0.80608651016204 
H7    H     0.24785844969635 0.04958188972947 0.87086389008773 
H8    H     0.27607142951329 0.37582692079826 0.93418660986900 
H9    H     0.46611448973485 0.71943335057015 0.97669226982963 
H10   H     0.77129201069580 0.01497879019886 0.98786249012728 
C1    C     0.87694861065132 0.27831910930985 0.81839662005310 
C2    C     0.72247781057729 0.31156754962811 0.84983928017068 
C3    C     0.73963108053722 0.50249302930430 0.88701789006560 
C4    C     0.85805790031003 0.09026625908715 0.78395621996629 
C5    C     0.54365237986981 0.14718393982652 0.84477152990926 
C6    C     0.91089728984436 0.67269203010704 0.89441525990721 
C7    C     0.57670554056568 0.52188306048765 0.91750703996950 
C8    C     0.68210575982346 0.92785962008292 0.77924057992186 
C9    C     0.52763935002421 0.95689871072438 0.80930452986886 
C10   C     0.92206240001777 0.85293425081792 0.93015036990382 
C11   C     0.38342279933290 0.17568284081554 0.87582811001597 
C12   C     0.39893606936637 0.35547705086918 0.91069155008751 
C13   C     0.59208233928824 0.70707906982869 0.95386884994376 
C14   C     0.76197920943695 0.87055157947356 0.96023596999501 
