data_stdin
_audit_creation_method 'critic2'
_audit_creation_date 2023-8-11
_chemical_formula_sum 'C14 H10'
_cell_formula_units_Z 4
_cell_length_a        27.8819254377
_cell_length_b         5.2314717128
_cell_length_c         6.4051371366
_cell_angle_alpha        90.0000
_cell_angle_beta        89.9989
_cell_angle_gamma        89.9994
_cell_volume           934.275748
_space_group_crystal_system orthorhombic
_space_group_IT_number 19
_space_group_name_H-M_alt 'P2_12_12_1'
_space_group_name_Hall 'P 2ac 2ab'
loop_
_symmetry_equiv_pos_site_id
_symmetry_equiv_pos_as_xyz
 1 'x,y,z'
 2 '-1/2+x,-1/2-y,-z'
 3 '-x,-1/2+y,-1/2-z'
 4 '-1/2-x,-y,-1/2+z'
loop_
_atom_site_label
_atom_site_type_symbol
_atom_site_fract_x
_atom_site_fract_y
_atom_site_fract_z
H1    H     0.92688224016858 0.85492257067223 0.76960009063028 
H2    H     0.98916668010192 0.52490892045395 0.77221405018484 
H3    H     0.87520406991254 0.11583552987652 0.77352954924112 
H4    H     0.81118990010669 0.43525304020935 0.78996745989879 
H5    H     0.99832654016725 0.23384564948987 0.08060505964600 
H6    H     0.94390592997881 0.27908733001760 0.38194627941340 
H7    H     0.87836788009035 0.49556671910913 0.55970707049360 
H8    H     0.81396988005744 0.82162865925634 0.56472734046164 
H9    H     0.76938282982314 0.16007569014578 0.39697382999091 
H10   H     0.75802959985492 0.46381118964276 0.10103950926209 
C1    C     0.93023003982705 0.73167204930538 0.90550791959202 
C2    C     0.89841237990256 0.76159273977006 0.07535195073356 
C3    C     0.86039046992960 0.95129543053177 0.07760417930984 
C4    C     0.96546757991121 0.54485200057144 0.90643417960124 
C5    C     0.90402588989878 0.59545888007589 0.25067616977682 
C6    C     0.85237084991869 0.12285965933035 0.91093652077260 
C7    C     0.82974837994829 0.96823504964498 0.25586258059191 
C8    C     0.97065347008848 0.38052326948773 0.07888732007757 
C9    C     0.94027538017018 0.40647236090421 0.24818564024655 
C10   C     0.81613250996923 0.30334310950835 0.91954141948097 
C11   C     0.87290200005594 0.62216198985892 0.42689494032124 
C12   C     0.83740562994318 0.80141091042933 0.42975580056880 
C13   C     0.79257016010999 0.15224175033851 0.26005650000993 
C14   C     0.78598579000114 0.31893228022245 0.09506638992290 
