data_stdin
_audit_creation_method 'critic2'
_audit_creation_date 2023-8-11
_chemical_formula_sum 'C14 H10'
_cell_formula_units_Z 4
_cell_length_a        20.6014530504
_cell_length_b         9.5353779633
_cell_length_c         4.8937596801
_cell_angle_alpha        89.9996
_cell_angle_beta        89.9998
_cell_angle_gamma        89.9959
_cell_volume           961.343076
_space_group_crystal_system orthorhombic
_space_group_IT_number 19
_space_group_name_H-M_alt 'P2_12_12_1'
_space_group_name_Hall 'P 2ac 2ab'
loop_
_symmetry_equiv_pos_site_id
_symmetry_equiv_pos_as_xyz
 1 'x,y,z'
 2 '-1/2+x,-1/2-y,-z'
 3 '-1/2-x,-y,-1/2+z'
 4 '-x,-1/2+y,-1/2-z'
loop_
_atom_site_label
_atom_site_type_symbol
_atom_site_fract_x
_atom_site_fract_y
_atom_site_fract_z
H1    H     0.96505449016215 0.98677312713535 0.43618317833628 
H2    H     0.97770658171291 0.23039600004412 0.58805235733919 
H3    H     0.95526785708490 0.78613469394660 0.33168863599316 
H4    H     0.93610178844390 0.54365818038160 0.19307298879757 
H5    H     0.90745984120327 0.32668441939520 0.95669708138282 
H6    H     0.82517689265082 0.17266737587783 0.17954388391056 
H7    H     0.77119779486122 0.94900831132955 0.22547295418471 
H8    H     0.75478057733136 0.70454953185026 0.07987652765664 
H9    H     0.78326163044275 0.50659212708770 0.78934262287778 
H10   H     0.85088728278401 0.39982283737831 0.42293511538425 
C1    C     0.93507329858046 0.02514695750493 0.60292843917356 
C2    C     0.88888941793141 0.93519732317096 0.72501794197425 
C3    C     0.87979703000873 0.79036261719296 0.64087265224170 
C4    C     0.94188978373514 0.16314182571761 0.68600703748134 
C5    C     0.84885861817732 0.99104267974196 0.93703237934444 
C6    C     0.91753662837087 0.72645314514508 0.43454388184440 
C7    C     0.83026827581072 0.70856877753025 0.76890024114503 
C8    C     0.90232678073736 0.21755293021442 0.89510396275827 
C9    C     0.85651696355995 0.13249393717630 0.01815857162996 
C10   C     0.90706283618344 0.58890456303158 0.35650067841903 
C11   C     0.80058342442796 0.90438831603649 0.06248284864479 
C12   C     0.79138925374105 0.76926975044038 0.98049182134185 
C13   C     0.82073254489608 0.56784192355020 0.68677015498461 
C14   C     0.85838605185042 0.50854179494482 0.48320313726486 
