data_stdin
_audit_creation_method 'critic2'
_audit_creation_date 2023-8-11
_chemical_formula_sum 'C14 H10'
_cell_formula_units_Z 4
_cell_length_a        25.7721728792
_cell_length_b         9.9877018570
_cell_length_c         3.8667160336
_cell_angle_alpha        92.0515
_cell_angle_beta        71.2141
_cell_angle_gamma        81.1416
_cell_volume           927.162802
_space_group_crystal_system triclinic
_space_group_IT_number 1
_space_group_name_H-M_alt 'P1'
_space_group_name_Hall 'P 1'
loop_
_symmetry_equiv_pos_site_id
_symmetry_equiv_pos_as_xyz
 1 'x,y,z'
 2 '-1/2+x,-1/2+y,z'
loop_
_atom_site_label
_atom_site_type_symbol
_atom_site_fract_x
_atom_site_fract_y
_atom_site_fract_z
H1    H     0.45872363008308 0.36827263024471 0.42206199032808 
H2    H     0.52368776999547 0.50641623962898 0.67262352136018 
H3    H     0.43541180005612 0.60826089036279 0.65599783883583 
H4    H     0.50829604992848 0.74794573031198 0.56903202009991 
H5    H     0.47619069996861 0.17032748956759 0.25392595042817 
H6    H     0.53671057998869 0.30800365039332 0.72479304039074 
H7    H     0.49282621001751 0.92924041021215 0.03228428119877 
H8    H     0.55604471001467 0.06344249045257 0.77911321977446 
H9    H     0.34479568015376 0.69947510958179 0.14369197117841 
H10   H     0.58351071980019 0.84804389980897 0.13430021114904 
H11   H     0.27735647994611 0.54475820981457 0.38704309918234 
H12   H     0.67484796995121 0.70224552987797 0.80406896019729 
H13   H     0.25005490979346 0.32400435042388 0.39090316066837 
H14   H     0.73597381988942 0.48240414019015 0.66352421066488 
H15   H     0.26943262991600 0.08184929956902 0.15255650873709 
H16   H     0.75311131984621 0.23702257954310 0.74078769003039 
H17   H     0.33103734997197 0.88826295955633 0.75785685866270 
H18   H     0.72070457992561 0.03544309980922 0.00197588087061 
H19   H     0.42064750987194 0.78613051039419 0.27987329892900 
H20   H     0.64816072012728 0.92459348028443 0.42029628031079 
C1    C     0.41899923006546 0.40477089960347 0.63596052122934 
C2    C     0.55687029018842 0.54707252959705 0.47686424911871 
C3    C     0.38135549015589 0.31451143998068 0.76772785061968 
C4    C     0.60792421995930 0.46085113965597 0.28764877913739 
C5    C     0.39316486005434 0.17166767004093 0.63388209091036 
C6    C     0.61785969992496 0.31631028005311 0.33074612116745 
C7    C     0.40594676998500 0.54079209033139 0.76744959117544 
C8    C     0.54818283986209 0.68370121982226 0.42186045108764 
C9    C     0.32919813990526 0.36782019997036 0.04279470063024 
C10   C     0.65113325007523 0.51939681022674 0.04247739878882 
C11   C     0.44388040978961 0.11018208014440 0.36584570122654 
C12   C     0.57728875983807 0.24996699999659 0.56468918111456 
C13   C     0.35200290985115 0.08885311021478 0.77636831972122 
C14   C     0.67061406007208 0.23636599046858 0.12687609101055 
C15   C     0.35469688004292 0.59252084995283 0.04025177871201 
C16   C     0.59061517995488 0.74057288009035 0.17697473018024 
C17   C     0.31719584989376 0.50661191989260 0.17574042890241 
C18   C     0.64145803001923 0.65951878025020 0.99345020044152 
C19   C     0.45358155009735 0.97403792995332 0.24132714879695 
C20   C     0.58803168980222 0.11167212023844 0.59614478063883 
C21   C     0.28933358000514 0.28079011961155 0.17902778902854 
C22   C     0.70360096001304 0.43550412979469 0.84823787057089 
C23   C     0.30020175995059 0.14712615021762 0.04985073075044 
C24   C     0.71294886984932 0.29989333999514 0.88928835123165 
C25   C     0.36290895978542 0.94993622014254 0.64530559111156 
C26   C     0.68041471982280 0.09516365997288 0.16179148130245 
C27   C     0.41283409994871 0.89300124000167 0.38079772136279 
C28   C     0.64003744995609 0.03334053987618 0.39431769978334 
