data_stdin
_audit_creation_method 'critic2'
_audit_creation_date 2023-8-11
_chemical_formula_sum 'C14 H10'
_cell_formula_units_Z 4
_cell_length_a         6.0323320955
_cell_length_b        10.3904650918
_cell_length_c        15.0428105249
_cell_angle_alpha        90.0012
_cell_angle_beta        80.0091
_cell_angle_gamma        90.0018
_cell_volume           928.565986
_space_group_crystal_system monoclinic
_space_group_IT_number 14
_space_group_name_H-M_alt 'P2_1/c'
_space_group_name_Hall '-P 2ybc'
loop_
_symmetry_equiv_pos_site_id
_symmetry_equiv_pos_as_xyz
 1 'x,y,z'
 2 '-x,-y,-z'
 3 '-x,-1/2+y,-1/2-z'
 4 'x,-1/2-y,-1/2+z'
loop_
_atom_site_label
_atom_site_type_symbol
_atom_site_fract_x
_atom_site_fract_y
_atom_site_fract_z
H1    H     0.30013331018118 0.51984530036184 0.59821892016612 
H2    H     0.20271210058316 0.66633572046410 0.72682600973094 
H3    H     0.36871197953095 0.39979855988889 0.49445734001671 
H4    H     0.44752542954396 0.24628603979618 0.36999614032050 
H5    H     0.83112679977681 0.65261524028435 0.82676755032216 
H6    H     0.54986937946049 0.49081586034264 0.79489431002262 
H7    H     0.44353519047136 0.31253456032442 0.70566197996383 
H8    H     0.53375179978883 0.16018414047000 0.57848704000800 
H9    H     0.79161825940944 0.07721986021816 0.44890116976481 
H10   H     0.15654990960142 0.08353552004919 0.34531336967129 
C1    C     0.13564585983899 0.51162729964282 0.64074475969405 
C2    C     0.98178978947047 0.41743173998654 0.62138904993920 
C3    C     0.03328692939051 0.32864485971306 0.54601671978791 
C4    C     0.08178612998522 0.59454791021271 0.71321753984111 
C5    C     0.76698368024378 0.41035875985804 0.67882151967565 
C6    C     0.24055440059648 0.32985206966254 0.48558307000935 
C7    C     0.86914031048078 0.23522136014300 0.53181631973731 
C8    C     0.87019857085663 0.58711447033951 0.76970036979101 
C9    C     0.71532864922303 0.49660165003290 0.75231044024048 
C10   C     0.28548592018174 0.24290605963996 0.41503135992331 
C11   C     0.60692397032467 0.31593417001696 0.66146774998422 
C12   C     0.65669083049246 0.23153051039079 0.59132411015363 
C13   C     0.91820742002484 0.14795578964871 0.45897607012686 
C14   C     0.12314175050625 0.15128538015256 0.40127119970855 
