data_stdin
_audit_creation_method 'critic2'
_audit_creation_date 2023-8-11
_chemical_formula_sum 'C14 H10'
_cell_formula_units_Z 4
_cell_length_a        15.6379967800
_cell_length_b         9.4740025700
_cell_length_c         6.4863949714
_cell_angle_alpha        90.0002
_cell_angle_beta        89.9988
_cell_angle_gamma        90.0000
_cell_volume           960.988096
_space_group_crystal_system orthorhombic
_space_group_IT_number 29
_space_group_name_H-M_alt 'Pca2_1'
_space_group_name_Hall 'P 2c -2ac'
loop_
_symmetry_equiv_pos_site_id
_symmetry_equiv_pos_as_xyz
 1 'x,y,z'
 2 '-x,-y,-1/2+z'
 3 '-1/2-x,y,-1/2+z'
 4 '-1/2+x,-y,z'
loop_
_atom_site_label
_atom_site_type_symbol
_atom_site_fract_x
_atom_site_fract_y
_atom_site_fract_z
H1    H     0.79171491974963 0.37525701000994 0.03642858026741 
H2    H     0.79018626023422 0.13940096028225 0.88608953935327 
H3    H     0.79237816998389 0.56616071972793 0.17043887061902 
H4    H     0.79551345022783 0.79495198962163 0.34390633046262 
H5    H     0.86309015993803 0.93827914051519 0.06475261039285 
H6    H     0.93648312024553 0.98036619033949 0.39956349055699 
H7    H     0.97800570016720 0.13469139972871 0.67812780059714 
H8    H     0.98024120983439 0.36928433966494 0.84257030991404 
H9    H     0.94184683013195 0.61762512964033 0.84306793956555 
H10   H     0.87173556013572 0.82449223030556 0.67964578988589 
C1    C     0.82368095987919 0.29027626043322 0.11831233931011 
C2    C     0.86501568002907 0.31734940006653 0.30781262058140 
C3    C     0.86609931022118 0.45580773029836 0.40465057023143 
C4    C     0.82258860994248 0.15631516022121 0.03249876004355 
C5    C     0.90622134003346 0.20221634955588 0.40963468002398 
C6    C     0.82579995016518 0.57510445957852 0.31685919956010 
C7    C     0.90836631022222 0.47277862042141 0.59868640998639 
C8    C     0.86366184968619 0.04346635050336 0.13283432071759 
C9    C     0.90484519022910 0.06667021044791 0.31869343056822 
C10   C     0.82751725978255 0.70515968023804 0.41469789997838 
C11   C     0.94791046006535 0.22466005014900 0.60315509962068 
C12   C     0.94903870012215 0.35425140007777 0.69421388054989 
C13   C     0.90949152976090 0.60671296041353 0.69523730941931 
C14   C     0.87010249970855 0.72170005028861 0.60438487945345 
