data_stdin
_audit_creation_method 'critic2'
_audit_creation_date 2023-8-11
_chemical_formula_sum 'C14 H10'
_cell_formula_units_Z 8
_cell_length_a        14.2305485300
_cell_length_b         8.7835304202
_cell_length_c        15.6611612500
_cell_angle_alpha        89.9996
_cell_angle_beta        90.0001
_cell_angle_gamma        89.9999
_cell_volume          1957.558329
_space_group_crystal_system orthorhombic
_space_group_IT_number 60
_space_group_name_H-M_alt 'Pbcn'
_space_group_name_Hall '-P 2n 2ab'
loop_
_symmetry_equiv_pos_site_id
_symmetry_equiv_pos_as_xyz
 1 'x,y,z'
 2 '-x,-y,-z'
 3 '-1/2-x,-1/2-y,-1/2+z'
 4 '-1/2+x,-1/2+y,-1/2-z'
 5 '-1/2+x,-1/2-y,-z'
 6 '-1/2-x,-1/2+y,z'
 7 '-x,y,-1/2-z'
 8 'x,-y,-1/2+z'
loop_
_atom_site_label
_atom_site_type_symbol
_atom_site_fract_x
_atom_site_fract_y
_atom_site_fract_z
H1    H     0.71453529977513 0.14560318040987 0.10293319971433 
H2    H     0.70605108004143 0.31763800968270 0.22658977997612 
H3    H     0.72529956028680 0.00595569055722 0.00269426975082 
H4    H     0.74117056968499 0.84713199003776 0.87525508994824 
H5    H     0.84010528009538 0.48696440966637 0.26197909024522 
H6    H     0.98315938024331 0.48598222056679 0.16968473001756 
H7    H     0.07061687975222 0.38958126045169 0.04859040020111 
H8    H     0.08082461034249 0.22598095959536 0.92045895015444 
H9    H     0.01303090974837 0.04242420007104 0.82425465028362 
H10   H     0.88362805004420 0.86631398963236 0.78300225978419 
C1    C     0.77341387969921 0.22054644944996 0.11634623977349 
C2    C     0.85316426023659 0.21767381989280 0.06259276014357 
C3    C     0.85938785978324 0.12101153030275 0.98749234988328 
C4    C     0.76861725972207 0.31626355009057 0.18647910984667 
C5    C     0.92994651970770 0.31595990998618 0.08303420003906 
C6    C     0.78784707014079 0.01788636989761 0.96339619987397 
C7    C     0.94179678034633 0.12880658959679 0.93559659027022 
C8    C     0.84458077992603 0.41253940985721 0.20652876016480 
C9    C     0.92384119034652 0.41182557961012 0.15542936011068 
C10   C     0.79648621018057 0.92811137961370 0.89108061992446 
C11   C     0.01215517033170 0.31645986945703 0.03038548014467 
C12   C     0.01756308971723 0.22698888045326 0.95951809995211 
C13   C     0.94874856026965 0.03658646033299 0.86191961014163 
C14   C     0.87722449985587 0.93798286964853 0.83939044975627 
