data_stdin
_audit_creation_method 'critic2'
_audit_creation_date 2023-8-11
_chemical_formula_sum 'C14 H10'
_cell_formula_units_Z 8
_cell_length_a        38.5349654518
_cell_length_b         6.1070233843
_cell_length_c         8.2175505706
_cell_angle_alpha        89.9994
_cell_angle_beta        90.0100
_cell_angle_gamma        89.9979
_cell_volume          1933.868482
_space_group_crystal_system monoclinic
_space_group_IT_number 14
_space_group_name_H-M_alt 'P2_1/c'
_space_group_name_Hall '-P 2ybc'
loop_
_symmetry_equiv_pos_site_id
_symmetry_equiv_pos_as_xyz
 1 'x,y,z'
 2 '-x,-y,-z'
 3 '-x,-1/2+y,-1/2-z'
 4 'x,-1/2-y,-1/2+z'
loop_
_atom_site_label
_atom_site_type_symbol
_atom_site_fract_x
_atom_site_fract_y
_atom_site_fract_z
H1    H     0.35835480999660 0.38752140042643 0.07486218982039 
H2    H     0.85835474010849 0.61248664069469 0.42493241990745 
H3    H     0.29700998011894 0.37099276050094 0.14478822037862 
H4    H     0.79700940011689 0.62907775010834 0.35487923049262 
H5    H     0.40956232012556 0.38381299956168 0.02441465984301 
H6    H     0.90956258996177 0.61615280078758 0.47548469009359 
H7    H     0.47162227991818 0.35946844023512 0.96878761969364 
H8    H     0.97162314992120 0.64047855956215 0.53120130020419 
H9    H     0.26036421989770 0.05402415993913 0.05507928004225 
H10   H     0.76036868012740 0.94608470007552 0.44451286014139 
H11   H     0.28737857005392 0.75108606078500 0.89682456046726 
H12   H     0.78738486992599 0.24897474927439 0.60284645033404 
H13   H     0.33713101994758 0.58302065935330 0.77017941983949 
H14   H     0.83713616990695 0.41697613920051 0.72961628992879 
H15   H     0.39985624996225 0.57825169047927 0.70959995012943 
H16   H     0.89986013004244 0.42169447018168 0.79031883037975 
H17   H     0.45656488995678 0.73923007975696 0.72812486953731 
H18   H     0.95656768989602 0.26069610033775 0.77187827012416 
H19   H     0.49615666996384 0.03584128931418 0.82102669050633 
H20   H     0.99615885999625 0.96408762982683 0.67901408055051 
C1    C     0.34327156997847 0.24742670015513 0.03425727957194 
C2    C     0.84327234006445 0.75258957964088 0.46551379997040 
C3    C     0.35937440987459 0.07685723925244 0.94597537995410 
C4    C     0.85937653994190 0.92313981980097 0.55383564050411 
C5    C     0.39630234006502 0.07425212972143 0.90957845039719 
C6    C     0.89630393007057 0.92571547051040 0.59030516051409 
C7    C     0.30829205995483 0.23923401072513 0.07292698993598 
C8    C     0.80829341006287 0.76081781038050 0.42677072031217 
C9    C     0.33843851987933 0.89566771079739 0.89595101056119 
C10   C     0.83844193998719 0.10434064936308 0.60382637991808 
C11   C     0.41931349990458 0.24205968982341 0.95884565024678 
C12   C     0.91931456009435 0.75790100975525 0.54107139041801 
C13   C     0.41048128993940 0.89024222977046 0.82514365013615 
C14   C     0.91048408991524 0.10971177007057 0.67477301047315 
C15   C     0.28779101993416 0.06020029062237 0.02371140988362 
C16   C     0.78779421010311 0.93986845009765 0.47594855037920 
C17   C     0.30273243997664 0.89165791919273 0.93579708008303 
C18   C     0.80273680001326 0.10838678998773 0.56390614940127 
C19   C     0.45458059012062 0.22859296963921 0.92735333033146 
C20   C     0.95458170001279 0.77135597023299 0.57261547985325 
C21   C     0.35369569002237 0.71797532007201 0.80817524949418 
C22   C     0.85370009008133 0.28201655959851 0.69163991988687 
C23   C     0.38832448010282 0.71522675942182 0.77463558996778 
C24   C     0.88832796005512 0.28473122068107 0.72525520032494 
C25   C     0.44652763992061 0.88094394988637 0.79353858951417 
C26   C     0.94652985997845 0.11899359998110 0.70643827947032 
C27   C     0.46840025998130 0.04683654927199 0.84422042026587 
C28   C     0.96840258006723 0.95310260978824 0.65577723993768 
