data_stdin
_audit_creation_method 'critic2'
_audit_creation_date 2023-8-11
_chemical_formula_sum 'C14 H10'
_cell_formula_units_Z 2
_cell_length_a         3.8781037067
_cell_length_b         9.6782986301
_cell_length_c        12.2273744105
_cell_angle_alpha        89.9995
_cell_angle_beta        88.8061
_cell_angle_gamma        89.9990
_cell_volume           458.835856
_space_group_crystal_system monoclinic
_space_group_IT_number 7
_space_group_name_H-M_alt 'Pc'
_space_group_name_Hall 'P -2yc'
loop_
_symmetry_equiv_pos_site_id
_symmetry_equiv_pos_as_xyz
 1 'x,y,z'
 2 'x,-y,-1/2+z'
loop_
_atom_site_label
_atom_site_type_symbol
_atom_site_fract_x
_atom_site_fract_y
_atom_site_fract_z
H1    H     0.01203765094570 0.00830582975071 0.00805243967140 
H2    H     0.82493883903626 0.23241578013211 0.93854396026301 
H3    H     0.13094924976517 0.81967967043963 0.06396697019032 
H4    H     0.32666431977306 0.59047817015700 0.12003143983201 
H5    H     0.57034758922364 0.25239362967293 0.75365331007547 
H6    H     0.51045618064709 0.04231055015354 0.63874210029895 
H7    H     0.57294260942560 0.79688130050975 0.61117032013925 
H8    H     0.77491891940001 0.56797225010932 0.67272661965793 
H9    H     0.03434270909483 0.42213142015372 0.80994163000301 
H10   H     0.28323445901502 0.38950113965214 0.99374307990756 
C1    C     0.89938657994994 0.01333614050366 0.92746636964589 
C2    C     0.86746465964132 0.89199807037038 0.86425147966787 
C3    C     0.97603886112391 0.75684604029362 0.90192539038679 
C4    C     0.79462247027209 0.14052068964277 0.88836345015016 
C5    C     0.72410713879135 0.90445586001652 0.75804538989914 
C6    C     0.11198560966666 0.73429665035427 0.00670638019948 
C7    C     0.94552308055769 0.64078034984295 0.83068560035405 
C8    C     0.65268475883919 0.15211490948679 0.78388115017814 
C9    C     0.61856760994815 0.03537782994925 0.72003269960874 
C10   C     0.21978865073404 0.60458884976713 0.03917356015504 
C11   C     0.69029127916648 0.78455977958123 0.69072606964006 
C12   C     0.79888538894299 0.65826582011668 0.72521227983584 
C13   C     0.05812247921606 0.50939657969750 0.86560935996855 
C14   C     0.19529117122873 0.49101907011884 0.96798312987802 
