data_stdin
_audit_creation_method 'critic2'
_audit_creation_date 2023-8-11
_chemical_formula_sum 'C14 H10'
_cell_formula_units_Z 4
_cell_length_a        12.0292281957
_cell_length_b         3.9270160042
_cell_length_c        20.2348676185
_cell_angle_alpha        89.9977
_cell_angle_beta        72.9349
_cell_angle_gamma        90.0015
_cell_volume           913.788893
_space_group_crystal_system monoclinic
_space_group_IT_number 14
_space_group_name_H-M_alt 'P2_1/c'
_space_group_name_Hall '-P 2ybc'
loop_
_symmetry_equiv_pos_site_id
_symmetry_equiv_pos_as_xyz
 1 'x,y,z'
 2 '-x,-y,-z'
 3 '-x,-1/2+y,-1/2-z'
 4 'x,-1/2-y,-1/2+z'
loop_
_atom_site_label
_atom_site_type_symbol
_atom_site_fract_x
_atom_site_fract_y
_atom_site_fract_z
H1    H     0.43090495994228 0.72729758992108 0.00918225007995 
H2    H     0.40098153046906 0.68825854941017 0.89499317978711 
H3    H     0.45092005000131 0.76433962919603 0.10276435016344 
H4    H     0.47057438962883 0.81973356992061 0.21921737021851 
H5    H     0.22003193019635 0.91740616102111 0.87503592975760 
H6    H     0.07178026024238 0.20002129076326 0.97123470979099 
H7    H     0.99928475963253 0.37035517076896 0.09183121001933 
H8    H     0.02333144035445 0.41087762026298 0.20855628978675 
H9    H     0.13721274977415 0.31650332873167 0.28795835982425 
H10   H     0.31431895992410 0.09790049065620 0.31300728977666 
C1    C     0.35150909990920 0.83074651879386 0.00186454010409 
C2    C     0.26759036013235 0.98309228956985 0.05807358024511 
C3    C     0.28193651021193 0.00850271924513 0.12670300015083 
C4    C     0.33477651970044 0.80786776060308 0.93719134017127 
C5    C     0.16463387970310 0.11665063902357 0.04627073013420 
C6    C     0.38139331965729 0.88555254923111 0.14262444019103 
C7    C     0.19233263020887 0.16422843061828 0.18074920974430 
C8    C     0.23317204961123 0.93925717067134 0.92584963014178 
C9    C     0.15018748967259 0.09372604997609 0.97957256002677 
C10   C     0.39290315024260 0.91673785102733 0.20842242013125 
C11   C     0.07710459020390 0.27016103041691 0.10206479001325 
C12   C     0.09028063951782 0.29225154122071 0.16658445017994 
C13   C     0.20583689016303 0.19232736896015 0.24763619018727 
C14   C     0.30465665001201 0.07143249964436 0.26142120987154 
