data_stdin
_audit_creation_method 'critic2'
_audit_creation_date 2023-8-11
_chemical_formula_sum 'C14 H10'
_cell_formula_units_Z 2
_cell_length_a         5.2276286396
_cell_length_b         6.4013389701
_cell_length_c        14.3585416847
_cell_angle_alpha        89.9999
_cell_angle_beta        76.5704
_cell_angle_gamma        90.0002
_cell_volume           467.353123
_space_group_crystal_system monoclinic
_space_group_IT_number 7
_space_group_name_H-M_alt 'Pc'
_space_group_name_Hall 'P -2yc'
loop_
_symmetry_equiv_pos_site_id
_symmetry_equiv_pos_as_xyz
 1 'x,y,z'
 2 'x,-y,-1/2+z'
loop_
_atom_site_label
_atom_site_type_symbol
_atom_site_fract_x
_atom_site_fract_y
_atom_site_fract_z
H1    H     0.95940478093984 0.56167315020314 0.01506299976176 
H2    H     0.21783340896853 0.55868773059177 0.13616745013754 
H3    H     0.77214228108775 0.56425970003817 0.90819622966311 
H4    H     0.53808691919236 0.55266792043075 0.77917366026250 
H5    H     0.52321704923434 0.26011075996874 0.14478445001990 
H6    H     0.53821287029463 0.95689070944953 0.03645345025551 
H7    H     0.38604209022270 0.77514376033764 0.91175787985629 
H8    H     0.13759438954274 0.77214379011769 0.78438875967601 
H9    H     0.86596548062168 0.94628939038599 0.69337416987402 
H10   H     0.58223539939005 0.24510308954289 0.67015623997863 
C1    C     0.08532755000613 0.42804453996697 0.01838741995750 
C2    C     0.09698357040145 0.26062897955846 0.95337443991301 
C3    C     0.95483019002603 0.26009966959828 0.87761944976508 
C4    C     0.23411747063352 0.42762831971616 0.08671305968342 
C5    C     0.25848713092052 0.08546951040498 0.96280846984830 
C6    C     0.79446724974993 0.42788003964574 0.86192059975693 
C7    C     0.97654180937800 0.08291207034520 0.81574002002990 
C8    C     0.40126933097574 0.25835419950440 0.09286392978700 
C9    C     0.40986529075428 0.08912790996535 0.03249336993650 
C10   C     0.66277484073580 0.42210573027183 0.78872575997887 
C11   C     0.26741997990015 0.90892307048746 0.90109751983828 
C12   C     0.13111271007643 0.90720700941631 0.83089943996971 
C13   C     0.84308325999552 0.08176528042059 0.74055930980323 
C14   C     0.68757559077008 0.24856492932624 0.72720771027226 
