data_stdin
_audit_creation_method 'critic2'
_audit_creation_date 2023-8-11
_chemical_formula_sum 'C14 H10'
_cell_formula_units_Z 4
_cell_length_a        11.8797513700
_cell_length_b        10.2687527300
_cell_length_c         7.8723043200
_cell_angle_alpha        90.0000
_cell_angle_beta        90.0000
_cell_angle_gamma        90.0000
_cell_volume           960.344209
_space_group_crystal_system orthorhombic
_space_group_IT_number 33
_space_group_name_H-M_alt 'Pna2_1'
_space_group_name_Hall 'P 2c -2n'
loop_
_symmetry_equiv_pos_site_id
_symmetry_equiv_pos_as_xyz
 1 'x,y,z'
 2 '-x,-y,-1/2+z'
 3 '-1/2-x,-1/2+y,-1/2+z'
 4 '-1/2+x,-1/2-y,z'
loop_
_atom_site_label
_atom_site_type_symbol
_atom_site_fract_x
_atom_site_fract_y
_atom_site_fract_z
H1    H     0.70735887963791 0.28040162987641 0.97720726007608 
H2    H     0.76908958024849 0.05535720027422 0.96211744985564 
H3    H     0.66547881010928 0.46972501034419 0.97455989953385 
H4    H     0.62192743009306 0.70267929048443 0.97190418975945 
H5    H     0.95541106970075 0.98862874962344 0.08486729961032 
H6    H     0.07801775971556 0.15562744039447 0.21898073987865 
H7    H     0.12043757989577 0.38089899953235 0.28572945010446 
H8    H     0.06781404958504 0.61372048003938 0.28558799019266 
H9    H     0.93793064994862 0.78602552006685 0.21784789941062 
H10   H     0.75584123974861 0.86316898029618 0.09569780944089 
C1    C     0.78888240009773 0.25549522959733 0.03036533031235 
C2    C     0.85811099001955 0.35338756005875 0.10084929975527 
C3    C     0.82719509976635 0.49037113040497 0.10081304042922 
C4    C     0.82355305993452 0.12689008007538 0.02267705024476 
C5    C     0.96499703971763 0.31561210985274 0.16810873966701 
C6    C     0.72538942989765 0.53730981013986 0.03054478057783 
C7    C     0.90487374029058 0.58326475044139 0.16806329965230 
C8    C     0.92833975003769 0.08984825043298 0.09062683042173 
C9    C     0.99714336982443 0.18293706972392 0.16409354006209 
C10   C     0.70042170960768 0.66913927021710 0.02823332964604 
C11   C     0.03943208035079 0.41217091013999 0.23553079019237 
C12   C     0.01052874994293 0.54062435991468 0.23506684989272 
C13   C     0.87748624964477 0.71725950012631 0.16454590018032 
C14   C     0.77677996981914 0.76000303010544 0.09619355044575 
