data_stdin
_audit_creation_method 'critic2'
_audit_creation_date 2023-8-11
_chemical_formula_sum 'C14 H10'
_cell_formula_units_Z 16
_cell_length_a        23.1717538205
_cell_length_b        33.0661887808
_cell_length_c         5.4500513529
_cell_angle_alpha        90.0004
_cell_angle_beta        89.9999
_cell_angle_gamma        89.9999
_cell_volume          4175.837991
_space_group_crystal_system orthorhombic
_space_group_IT_number 43
_space_group_name_H-M_alt 'Fdd2'
_space_group_name_Hall 'F 2 -2d'
loop_
_symmetry_equiv_pos_site_id
_symmetry_equiv_pos_as_xyz
 1 'x,y,z'
 2 '-1/2-x,-y,-1/2+z'
 3 '-3/4-x,-3/4+y,-3/4+z'
 4 '-3/4+x,-3/4-y,-3/4+z'
 5 'x,-1/2+y,-1/2+z'
 6 '-1/2-x,-1/2-y,z'
 7 '-3/4-x,-1/4+y,-1/4+z'
 8 '-3/4+x,-1/4-y,-1/4+z'
 9 '-1/2+x,y,-1/2+z'
 10 '-x,-y,z'
 11 '-1/4-x,-3/4+y,-1/4+z'
 12 '-1/4+x,-3/4-y,-1/4+z'
 13 '-1/2+x,-1/2+y,z'
 14 '-x,-1/2-y,-1/2+z'
 15 '-1/4-x,-1/4+y,-3/4+z'
 16 '-1/4+x,-1/4-y,-3/4+z'
loop_
_atom_site_label
_atom_site_type_symbol
_atom_site_fract_x
_atom_site_fract_y
_atom_site_fract_z
H1    H     0.53549082016218 0.74661842004268 0.57661527991407 
H2    H     0.58215666013795 0.68054876007862 0.57111594963180 
H3    H     0.49776138003488 0.80090707007999 0.57182831011948 
H4    H     0.45328392001629 0.86770519014643 0.55376740998138 
H5    H     0.65395646001732 0.66335173001080 0.24064750929226 
H6    H     0.67651667007348 0.71372402994796 0.92002036988343 
H7    H     0.66302593020859 0.77976443006841 0.73315859000080 
H8    H     0.61730418984696 0.84715897006726 0.72905969909056 
H9    H     0.55082135008926 0.89619724993236 0.90342023982514 
H10   H     0.47901159979339 0.91615324991875 0.22122807917915 
C1    C     0.56628845006567 0.74004559001898 0.43174352051222 
C2    C     0.57855194982875 0.76949740006221 0.25104542923705 
C3    C     0.55129465012728 0.80909662989308 0.24765038075991 
C4    C     0.59287005986344 0.70248739001979 0.42926852912568 
C5    C     0.61931753991020 0.75948385003492 0.06383141908715 
C6    C     0.51022382000642 0.82130185008416 0.42469263956565 
C7    C     0.56600385001232 0.83695477985587 0.05710304016946 
C8    C     0.63308962000654 0.69285924002268 0.24485488995202 
C9    C     0.64590676019487 0.72100987007535 0.06520038008179 
C10   C     0.48486291019366 0.85921094988611 0.41511473033249 
C11   C     0.63251726004038 0.78835999997446 0.87619188038533 
C12   C     0.60704904004944 0.82552944990330 0.87333753945930 
C13   C     0.53935222017838 0.87541816014652 0.05081716011095 
C14   C     0.49945485994020 0.88654894006459 0.22713674087511 
