data_stdin
_audit_creation_method 'critic2'
_audit_creation_date 2023-8-11
_chemical_formula_sum 'C14 H10'
_cell_formula_units_Z 8
_cell_length_a        18.9352591908
_cell_length_b         6.0286228121
_cell_length_c        16.9947293679
_cell_angle_alpha        90.0004
_cell_angle_beta        90.0000
_cell_angle_gamma        90.0003
_cell_volume          1940.008442
_space_group_crystal_system orthorhombic
_space_group_IT_number 61
_space_group_name_H-M_alt 'Pbca'
_space_group_name_Hall '-P 2ac 2ab'
loop_
_symmetry_equiv_pos_site_id
_symmetry_equiv_pos_as_xyz
 1 'x,y,z'
 2 '-x,-y,-z'
 3 '-1/2+x,-1/2-y,-z'
 4 '-1/2-x,-1/2+y,z'
 5 '-x,-1/2+y,-1/2-z'
 6 'x,-1/2-y,-1/2+z'
 7 '-1/2-x,-y,-1/2+z'
 8 '-1/2+x,y,-1/2-z'
loop_
_atom_site_label
_atom_site_type_symbol
_atom_site_fract_x
_atom_site_fract_y
_atom_site_fract_z
H1    H     0.96795304019500 0.91917496987375 0.78046626991816 
H2    H     0.84426787012734 0.91133158004882 0.74078069025478 
H3    H     0.06907405990452 0.91773773021291 0.81361425020778 
H4    H     0.19118242992108 0.90831720049486 0.85875999972093 
H5    H     0.76525239995597 0.60125117054827 0.78421075014084 
H6    H     0.81445093015674 0.29592144046873 0.86585046017493 
H7    H     0.91314452021286 0.11600563034889 0.93033213984229 
H8    H     0.03862482993536 0.11359400036738 0.97125503986582 
H9    H     0.15265829003832 0.29144670949072 0.97955125015046 
H10   H     0.23423019987565 0.59949284073812 0.94449715984846 
C1    C     0.93523350008457 0.78149250992876 0.79965230026291 
C2    C     0.96477302989541 0.60991182066548 0.84580683991217 
C3    C     0.03837345006615 0.60868680962769 0.87008867997557 
C4    C     0.86477867992503 0.77827361044264 0.77760622024206 
C5    C     0.91998332023249 0.43064842020146 0.86893391971130 
C6    C     0.08620101025695 0.77919555950332 0.84980827006433 
C7    C     0.06388373007480 0.42812298938102 0.91648534005416 
C8    C     0.82056837979362 0.60329656990994 0.80177026021213 
C9    C     0.84800351980122 0.43261615954295 0.84680912984344 
C10   C     0.15558432983334 0.77486910974759 0.87569068980511 
C11   C     0.94834996999215 0.25144292958686 0.91417685000731 
C12   C     0.01735577987285 0.25033671062762 0.93687183973412 
C13   C     0.13473818991647 0.42798075035898 0.94255914998369 
C14   C     0.18000277978296 0.59960234025920 0.92318047019717 
