data_stdin
_audit_creation_method 'critic2'
_audit_creation_date 2023-8-11
_chemical_formula_sum 'C14 H10'
_cell_formula_units_Z 4
_cell_length_a         8.0272884146
_cell_length_b         6.0827751809
_cell_length_c        19.5411104134
_cell_angle_alpha        90.0008
_cell_angle_beta        87.6909
_cell_angle_gamma        90.0005
_cell_volume           953.382277
_space_group_crystal_system monoclinic
_space_group_IT_number 14
_space_group_name_H-M_alt 'P2_1/c'
_space_group_name_Hall '-P 2ybc'
loop_
_symmetry_equiv_pos_site_id
_symmetry_equiv_pos_as_xyz
 1 'x,y,z'
 2 '-x,-y,-z'
 3 '-x,-1/2+y,-1/2-z'
 4 'x,-1/2-y,-1/2+z'
loop_
_atom_site_label
_atom_site_type_symbol
_atom_site_fract_x
_atom_site_fract_y
_atom_site_fract_z
H1    H     0.40612728950266 0.31839405027783 0.32512721016093 
H2    H     0.37390351985613 0.33513591928143 0.44923922017747 
H3    H     0.41496579949898 0.30576179933689 0.22237635979544 
H4    H     0.42440626013745 0.27805832949782 0.09777582008190 
H5    H     0.21670549960279 0.04348281023186 0.51478113013553 
H6    H     0.10133291997156 0.72436421002460 0.45222528005454 
H7    H     0.06197442983650 0.52422273015299 0.34685614986527 
H8    H     0.08885277965764 0.49680040963544 0.22113738997975 
H9    H     0.16609308948142 0.65608600928601 0.11104625008985 
H10   H     0.29670793941247 0.95325829942355 0.04015672010234 
C1    C     0.33916807987625 0.18666241994631 0.35180205010143 
C2    C     0.27271900943866 0.01002458034221 0.31477979021742 
C3    C     0.28530180942170 0.99640238948375 0.24046278989570 
C4    C     0.32023941003916 0.19695621986567 0.42249377976210 
C5    C     0.18838366984874 0.83886587978671 0.35247690010626 
C6    C     0.36021699055109 0.16232506073971 0.19894793019355 
C7    C     0.21642929033087 0.80967448067058 0.20738675020755 
C8    C     0.23311982056271 0.03164936009817 0.45934138015256 
C9    C     0.16882629957921 0.85461119925997 0.42459129014922 
C10   C     0.36465270027059 0.14758112946527 0.12808523012460 
C11   C     0.12402030045011 0.65360225924929 0.31705507974958 
C12   C     0.13844354049305 0.63871538937906 0.24745592021509 
C13   C     0.22214938953130 0.79825900927671 0.13505935987425 
C14   C     0.29387568948497 0.96499318944323 0.09579915984874 
