data_stdin
_audit_creation_method 'critic2'
_audit_creation_date 2023-8-11
_chemical_formula_sum 'C14 H10'
_cell_formula_units_Z 4
_cell_length_a        14.2775455395
_cell_length_b         5.2508997801
_cell_length_c        12.7359954666
_cell_angle_alpha        90.0002
_cell_angle_beta        80.3270
_cell_angle_gamma        90.0008
_cell_volume           941.242257
_space_group_crystal_system monoclinic
_space_group_IT_number 14
_space_group_name_H-M_alt 'P2_1/c'
_space_group_name_Hall '-P 2ybc'
loop_
_symmetry_equiv_pos_site_id
_symmetry_equiv_pos_as_xyz
 1 'x,y,z'
 2 '-x,-y,-z'
 3 '-1/2-x,-1/2+y,-1/2-z'
 4 '-1/2+x,-1/2-y,-1/2+z'
loop_
_atom_site_label
_atom_site_type_symbol
_atom_site_fract_x
_atom_site_fract_y
_atom_site_fract_z
H1    H     0.47817912994254 0.24332406151194 0.19535466124342 
H2    H     0.40967104279942 0.12675541589833 0.37772465605581 
H3    H     0.52951005923454 0.30910966161956 0.04139538956139 
H4    H     0.60962728418315 0.41921884056546 0.86164941083460 
H5    H     0.47425663550238 0.75658664088270 0.46690602197990 
H6    H     0.60970040642818 0.50798208079025 0.36856982827293 
H7    H     0.72752087105699 0.43500325832784 0.21220713762500 
H8    H     0.80708910997417 0.55979149707956 0.03305346511152 
H9    H     0.81974760707147 0.83988673845443 0.87803772787481 
H10   H     0.75663258901772 0.19104102649528 0.77928915070786 
C1    C     0.50718322994529 0.08055765996347 0.23171132241653 
C2    C     0.58426847505744 0.94367184532494 0.17397637821385 
C3    C     0.62832880496805 0.01035617989923 0.06625017699765 
C4    C     0.46836083540018 0.01499332921880 0.33518595460853 
C5    C     0.62120971516415 0.73372559181986 0.22551345139185 
C6    C     0.59333555415026 0.20589893731912 0.00714938149038 
C7    C     0.71083351330986 0.87391325464604 0.01730199725736 
C8    C     0.50471081290722 0.80665921034136 0.38531366402935 
C9    C     0.57991829335390 0.66825537536632 0.33093756108464 
C10   C     0.63838891151382 0.26868476418058 0.90566207107290 
C11   C     0.70158084492524 0.59589236414495 0.17161976997285 
C12   C     0.74558947230853 0.66602634056214 0.07250399146038 
C13   C     0.75633884998870 0.94384391969840 0.91392291960281 
C14   C     0.72115420911248 0.13897967940086 0.85885248632338 
