data_stdin
_audit_creation_method 'critic2'
_audit_creation_date 2023-8-11
_chemical_formula_sum 'C14 H10'
_cell_formula_units_Z 8
_cell_length_a        14.9381099361
_cell_length_b         6.7559355594
_cell_length_c        18.8987152241
_cell_angle_alpha        89.9984
_cell_angle_beta        98.5932
_cell_angle_gamma        90.0014
_cell_volume          1885.864415
_space_group_crystal_system monoclinic
_space_group_IT_number 15
_space_group_name_H-M_alt 'C2/c'
_space_group_name_Hall '-C 2yc'
loop_
_symmetry_equiv_pos_site_id
_symmetry_equiv_pos_as_xyz
 1 'x,y,z'
 2 '-x,-1/2-y,-1/2-z'
 3 '-1/2-x,y,-1/2-z'
 4 '-1/2+x,-1/2-y,z'
 5 'x,-1/2+y,-1/2+z'
 6 '-x,-y,-z'
 7 '-1/2-x,-1/2+y,-z'
 8 '-1/2+x,-y,-1/2+z'
loop_
_atom_site_label
_atom_site_type_symbol
_atom_site_fract_x
_atom_site_fract_y
_atom_site_fract_z
H1    H     0.43439817993386 0.86977288957196 0.08443175998176 
H2    H     0.40948020004774 0.83336298039032 0.20883460983472 
H3    H     0.44571655015765 0.89848237011246 0.98157061015173 
H4    H     0.45842624004815 0.92376879926328 0.85414705987054 
H5    H     0.34113147982497 0.52269585965020 0.24940392007674 
H6    H     0.30220072031932 0.24726485042378 0.16327606017418 
H7    H     0.29770707017218 0.10453054947467 0.04504553995360 
H8    H     0.31424171975498 0.13797443926649 0.91780515002240 
H9    H     0.35267515969313 0.33342747940736 0.81926130009494 
H10   H     0.41229123012574 0.64332750048708 0.77153644983948 
C1    C     0.40622018004797 0.73202129944614 0.10104162019566 
C2    C     0.38418571998029 0.57854894072872 0.05073438001957 
C3    C     0.39422020015086 0.59819139014851 0.97582036994952 
C4    C     0.39159687030445 0.71238197932277 0.17131993998010 
C5    C     0.34766135009411 0.39951311024746 0.07468936980236 
C6    C     0.42646780978585 0.77243573956746 0.94697522014931 
C7    C     0.36767499991937 0.43751272928108 0.92817296975470 
C8    C     0.35382811967794 0.53719380000310 0.19436287986803 
C9    C     0.33258305983202 0.38303545990356 0.14659981019386 
C10   C     0.43292841031695 0.78785829971508 0.87487718019681 
C11   C     0.32462421985331 0.24034469944067 0.02541886995531 
C12   C     0.33400010025253 0.25880192028183 0.95503629008419 
C13   C     0.37417714988190 0.45736645001457 0.85462777985342 
C14   C     0.40669492994849 0.62936861015535 0.82810306999541 
