data_stdin
_audit_creation_method 'critic2'
_audit_creation_date 2023-8-11
_chemical_formula_sum 'C14 H10'
_cell_formula_units_Z 4
_cell_length_a         6.0609760698
_cell_length_b        12.8980650708
_cell_length_c        12.5079889282
_cell_angle_alpha        89.9999
_cell_angle_beta        75.9678
_cell_angle_gamma        90.0028
_cell_volume           948.632087
_space_group_crystal_system monoclinic
_space_group_IT_number 14
_space_group_name_H-M_alt 'P2_1/c'
_space_group_name_Hall '-P 2ybc'
loop_
_symmetry_equiv_pos_site_id
_symmetry_equiv_pos_as_xyz
 1 'x,y,z'
 2 '-x,-y,-z'
 3 '-x,-1/2+y,-1/2-z'
 4 'x,-1/2-y,-1/2+z'
loop_
_atom_site_label
_atom_site_type_symbol
_atom_site_fract_x
_atom_site_fract_y
_atom_site_fract_z
H1    H     0.33597106021441 0.07689802976989 0.00631621002550 
H2    H     0.37730007927678 0.19097299985547 0.84654468037867 
H3    H     0.29098998040270 0.98226489032348 0.13620342978625 
H4    H     0.22356719949695 0.86925386033046 0.29798308013707 
H5    H     0.05174789064469 0.30191531001105 0.82446886975133 
H6    H     0.68858519030167 0.29731090995804 0.96627956014931 
H7    H     0.45375134071137 0.23207750980615 0.13985899966520 
H8    H     0.40100009010988 0.11607730969558 0.30162149004619 
H9    H     0.53856034012668 0.98413964024614 0.40520949028871 
H10   H     0.85024196082129 0.86909139011641 0.43487649958794 
C1    C     0.19287721976420 0.12501167987813 0.99930077039004 
C2    C     0.98692042947952 0.11992406981768 0.08139601973254 
C3    C     0.95509614950072 0.05186397962960 0.17653389021501 
C4    C     0.21703647007811 0.18969695003914 0.90886678974425 
C5    C     0.80264479035089 0.18417897029422 0.06872492994614 
C6    C     0.12639097039159 0.98477532988244 0.19489589988499 
C7    C     0.74039734009152 0.05128716990230 0.25524840034457 
C8    C     0.03465855967242 0.25221194997824 0.89635935984975 
C9    C     0.83096150956320 0.24938278972496 0.97545624963909 
C10   C     0.08918097081656 0.92085624967076 0.28645681986620 
C11   C     0.59162694983527 0.18202018014513 0.15076417008082 
C12   C     0.56234810012168 0.11824698997018 0.24010446974035 
C13   C     0.70523566922577 0.98429893037212 0.34736383020537 
C14   C     0.87714391080337 0.92011339005734 0.36350737985139 
