data_stdin
_audit_creation_method 'critic2'
_audit_creation_date 2023-8-11
_chemical_formula_sum 'C14 H10'
_cell_formula_units_Z 4
_cell_length_a        16.2903891124
_cell_length_b         5.8142413846
_cell_length_c        10.2499165635
_cell_angle_alpha        89.9841
_cell_angle_beta        79.0376
_cell_angle_gamma        89.9916
_cell_volume           953.118017
_space_group_crystal_system monoclinic
_space_group_IT_number 14
_space_group_name_H-M_alt 'P2_1/c'
_space_group_name_Hall '-P 2ybc'
loop_
_symmetry_equiv_pos_site_id
_symmetry_equiv_pos_as_xyz
 1 'x,y,z'
 2 '-x,-y,-z'
 3 '-x,-1/2+y,-1/2-z'
 4 'x,-1/2-y,-1/2+z'
loop_
_atom_site_label
_atom_site_type_symbol
_atom_site_fract_x
_atom_site_fract_y
_atom_site_fract_z
H1    H     0.76402400970025 0.59734421930443 0.25954201039851 
H2    H     0.63716085968172 0.54416200921317 0.42626434014439 
H3    H     0.86136517010451 0.63287971997012 0.11102152009682 
H4    H     0.98115869003087 0.69250173926238 0.93021560982897 
H5    H     0.51972192001454 0.82442007953978 0.44608527999025 
H6    H     0.53340123973369 0.16784650958816 0.29745907043303 
H7    H     0.61410833019921 0.39889109036931 0.11972436955963 
H8    H     0.73804984018170 0.45444576918196 0.94395896025388 
H9    H     0.87149300029307 0.32074196999718 0.81967061974082 
H10   H     0.98763053021947 0.03450832062484 0.78192684041885 
C1    C     0.71421672017803 0.72334855978966 0.26562483968880 
C2    C     0.72305776003592 0.91231968045003 0.17738920977079 
C3    C     0.79596871022621 0.94386272973896 0.07270191031369 
C4    C     0.64237575982207 0.69289230078863 0.36079864990086 
C5    C     0.65662320011091 0.07659305995478 0.19141452955193 
C6    C     0.86265204996720 0.78422917041032 0.04830415999659 
C7    C     0.80017354978583 0.14079483949499 0.98815593000419 
C8    C     0.57634351983995 0.85185436999531 0.37206816033173 
C9    C     0.58378015001140 0.04202648079956 0.28938515011086 
C10   C     0.93003971985448 0.81619845060618 0.94518188956089 
C11   C     0.66439297990857 0.27282459010728 0.10563261970289 
C12   C     0.73326485976655 0.30419615069013 0.00835058027122 
C13   C     0.86985862990589 0.16984570078379 0.88337162020264 
C14   C     0.93387243018490 0.00993374967653 0.86178256013382 
