data_stdin
_audit_creation_method 'critic2'
_audit_creation_date 2023-8-11
_chemical_formula_sum 'C14 H10'
_cell_formula_units_Z 4
_cell_length_a         9.5545140584
_cell_length_b         9.9493694908
_cell_length_c        12.7976253045
_cell_angle_alpha        89.9996
_cell_angle_beta        51.3378
_cell_angle_gamma        89.9952
_cell_volume           949.942564
_space_group_crystal_system monoclinic
_space_group_IT_number 14
_space_group_name_H-M_alt 'P2_1/c'
_space_group_name_Hall '-P 2ybc'
loop_
_symmetry_equiv_pos_site_id
_symmetry_equiv_pos_as_xyz
 1 'x,y,z'
 2 '-x,-y,-z'
 3 '-x,-1/2+y,-1/2-z'
 4 'x,-1/2-y,-1/2+z'
loop_
_atom_site_label
_atom_site_type_symbol
_atom_site_fract_x
_atom_site_fract_y
_atom_site_fract_z
H1    H     0.70515774020825 0.75002575010337 0.27561186956138 
H2    H     0.77545064977829 0.96988833018776 0.16779501963830 
H3    H     0.66398610030618 0.56710560036615 0.35467437022659 
H4    H     0.58705569005029 0.34274979034324 0.45349107995892 
H5    H     0.88216509073916 0.98928366004660 0.93415518955037 
H6    H     0.91761997005997 0.78365863978097 0.80981209031890 
H7    H     0.89087058967561 0.54195881976287 0.79977110048383 
H8    H     0.81311085990038 0.31778502964092 0.90524528036541 
H9    H     0.70880362981885 0.17482634027015 0.09532867017416 
H10   H     0.60559884043826 0.14433105023856 0.32653365949181 
C1    C     0.75400383021218 0.75506918015066 0.17288820966648 
C2    C     0.77179108051852 0.63612367031392 0.10515242992060 
C3    C     0.72898426057982 0.50402427999043 0.16634258946226 
C4    C     0.79278721014192 0.87978582996544 0.11260758023466 
C5    C     0.83049868042182 0.64806551958206 0.97199742007834 
C6    C     0.67320237035980 0.48288850047660 0.29654465028351 
C7    C     0.74343062995863 0.38955206035577 0.09276341000757 
C8    C     0.85200318951098 0.89087283032131 0.98102343016657 
C9    C     0.87106607961654 0.77643139031266 0.91200034049662 
C10   C     0.63087331056704 0.35563715001778 0.35253026962285 
C11   C     0.84499066949479 0.53032819008752 0.90148631049596 
C12   C     0.80222079010076 0.40654636003217 0.95971459991157 
C13   C     0.69904356934483 0.26082058026612 0.15229764040005 
C14   C     0.64276473026710 0.24350856973479 0.28051386031136 
