data_stdin
_audit_creation_method 'critic2'
_audit_creation_date 2023-8-11
_chemical_formula_sum 'C14 H10'
_cell_formula_units_Z 4
_cell_length_a        12.6755680411
_cell_length_b         5.2930058904
_cell_length_c        14.2128124151
_cell_angle_alpha        90.0003
_cell_angle_beta        77.6140
_cell_angle_gamma        90.0008
_cell_volume           931.369510
_space_group_crystal_system monoclinic
_space_group_IT_number 14
_space_group_name_H-M_alt 'P2_1/c'
_space_group_name_Hall '-P 2ybc'
loop_
_symmetry_equiv_pos_site_id
_symmetry_equiv_pos_as_xyz
 1 'x,y,z'
 2 '-x,-y,-z'
 3 '-x,-1/2+y,-1/2-z'
 4 'x,-1/2-y,-1/2+z'
loop_
_atom_site_label
_atom_site_type_symbol
_atom_site_fract_x
_atom_site_fract_y
_atom_site_fract_z
H1    H     0.03937477992344 0.98211085058061 0.38017539969087 
H2    H     0.01279275032783 0.64199222920319 0.27114141005253 
H3    H     0.06459401984042 0.25275506017008 0.47082647007847 
H4    H     0.10219512019180 0.58057915049859 0.58054224967329 
H5    H     0.16784482021407 0.36737582009017 0.19287188014374 
H6    H     0.34856521023072 0.44153360908623 0.22638343987156 
H7    H     0.47138826979018 0.68835454048144 0.29987552012861 
H8    H     0.50354296957200 0.03094861017353 0.40933865014675 
H9    H     0.43636059999013 0.36160741083335 0.52435251998027 
H10   H     0.28721645030906 0.63770967911806 0.60937932007402 
C1    C     0.10837779966184 0.86732159929574 0.34657131998869 
C2    C     0.21083409012948 0.91490977077746 0.36691015994063 
C3    C     0.22924354996086 0.11182199991995 0.43271087030230 
C4    C     0.09293285032030 0.67458708062222 0.28494457988329 
C5    C     0.29922447963260 0.75983401947549 0.32082276012991 
C6    C     0.14643968028013 0.27231613927227 0.48190980018337 
C7    C     0.33583643983665 0.14832788034906 0.44830789998619 
C8    C     0.17970057042517 0.51954585067450 0.24104839977921 
C9    C     0.28107502965220 0.56216522079734 0.25926305014654 
C10   C     0.16731642031290 0.45869498044638 0.54382098011696 
C11   C     0.40511013005583 0.80691237960325 0.33715370983507 
C12   C     0.42263480013428 0.99470424987450 0.39774762009447 
C13   C     0.35469976023395 0.33796794011399 0.51281490033399 
C14   C     0.27204689006668 0.49154389065064 0.56014502967972 
