data_stdin
_audit_creation_method 'critic2'
_audit_creation_date 2023-8-11
_chemical_formula_sum 'C14 H10'
_cell_formula_units_Z 4
_cell_length_a         8.3107655500
_cell_length_b        15.1172413200
_cell_length_c         7.7350609901
_cell_angle_alpha        90.0003
_cell_angle_beta        89.9998
_cell_angle_gamma        90.0000
_cell_volume           971.800950
_space_group_crystal_system orthorhombic
_space_group_IT_number 33
_space_group_name_H-M_alt 'Pna2_1'
_space_group_name_Hall 'P 2c -2n'
loop_
_symmetry_equiv_pos_site_id
_symmetry_equiv_pos_as_xyz
 1 'x,y,z'
 2 '-x,-y,-1/2+z'
 3 '-1/2-x,-1/2+y,-1/2+z'
 4 '-1/2+x,-1/2-y,z'
loop_
_atom_site_label
_atom_site_type_symbol
_atom_site_fract_x
_atom_site_fract_y
_atom_site_fract_z
H1    H     0.51191365111994 0.80697617014623 0.01557943755121 
H2    H     0.29472957333455 0.80140113713344 0.22987144243735 
H3    H     0.67756759386425 0.80125863959843 0.82908601432060 
H4    H     0.88077697026644 0.80691544140254 0.60073559243305 
H5    H     0.02144322350818 0.85735985094594 0.15664245941114 
H6    H     0.96815975691221 0.91930730560261 0.86442262970038 
H7    H     0.06063598719035 0.96364189248795 0.58021519666476 
H8    H     0.27765240914973 0.97547678125441 0.36113708828223 
H9    H     0.54934282865641 0.94361457312664 0.26631629049280 
H10   H     0.81940087030642 0.88030282073744 0.31829525020183 
C1    C     0.39363835912375 0.83164273820960 0.98025107403391 
C2    C     0.36728607736827 0.86636121596615 0.81309109922149 
C3    C     0.49234846330796 0.86947740731106 0.68193376877149 
C4    C     0.27135008166660 0.82835685234467 0.10180045052940 
C5    C     0.21072838017231 0.89941612554638 0.77265656737200 
C6    C     0.64750544288964 0.83334208272527 0.70747974600808 
C7    C     0.45727043399426 0.90944075854440 0.51874005010998 
C8    C     0.11703493472335 0.86031734034074 0.06065410166089 
C9    C     0.08751517543116 0.89505886556520 0.89834371800256 
C10   C     0.76299033730770 0.83632546109614 0.57836437231019 
C11   C     0.18089103678287 0.93836864650406 0.60701184293092 
C12   C     0.30000237698793 0.94464921159809 0.48625830058643 
C13   C     0.57756963206617 0.91262784138641 0.38970341661722 
C14   C     0.72806884012887 0.87673133310148 0.41886073575876 
