data_stdin
_audit_creation_method 'critic2'
_audit_creation_date 2023-8-11
_chemical_formula_sum 'C14 H10'
_cell_formula_units_Z 4
_cell_length_a        13.7969574056
_cell_length_b         6.3952124901
_cell_length_c        10.9122871804
_cell_angle_alpha        90.0003
_cell_angle_beta        86.3657
_cell_angle_gamma        90.0003
_cell_volume           960.903589
_space_group_crystal_system monoclinic
_space_group_IT_number 14
_space_group_name_H-M_alt 'P2_1/c'
_space_group_name_Hall '-P 2ybc'
loop_
_symmetry_equiv_pos_site_id
_symmetry_equiv_pos_as_xyz
 1 'x,y,z'
 2 '-x,-y,-z'
 3 '-x,-1/2+y,-1/2-z'
 4 'x,-1/2-y,-1/2+z'
loop_
_atom_site_label
_atom_site_type_symbol
_atom_site_fract_x
_atom_site_fract_y
_atom_site_fract_z
H1    H     0.93400837027096 0.08619728952319 0.20016159013004 
H2    H     0.01092838008235 0.82929108009811 0.05918143989187 
H3    H     0.86369433972426 0.29926942013460 0.30626824020170 
H4    H     0.77804469967286 0.54218673021879 0.44831805044769 
H5    H     0.91758294973741 0.51956823934012 0.99069775035352 
H6    H     0.74722443003569 0.46855711073113 0.06960075022638 
H7    H     0.60525528970669 0.58220519020819 0.19207995014547 
H8    H     0.51989846015424 0.83849301069863 0.32858112989958 
H9    H     0.52067105982159 0.16292641049009 0.44853995968607 
H10   H     0.60684172007170 0.47391208967336 0.52406729956810 
C1    C     0.89172185980276 0.95249802968726 0.17252374043560 
C2    C     0.79346501019289 0.93077595033842 0.21621985958330 
C3    C     0.74372399986228 0.08176143944837 0.29730903965556 
C4    C     0.93573766026344 0.80663069006468 0.09316808000189 
C5    C     0.74144323029537 0.75154995967861 0.17802704001640 
C6    C     0.78937311997680 0.26410773990979 0.33876794037662 
C7    C     0.64447675022684 0.04625379012964 0.33778199009195 
C8    C     0.88353610996483 0.63178595928800 0.05479628972346 
C9    C     0.78801496992032 0.60420540073546 0.09771044979756 
C10   C     0.74122207996576 0.40222072969512 0.41901307043833 
C11   C     0.64222525029650 0.72266001988328 0.22068691017392 
C12   C     0.59546545021790 0.86413571037952 0.29688699966320 
C13   C     0.59650934016515 0.19071598048951 0.41918459964836 
C14   C     0.64409590026651 0.36478025015239 0.46057823983649 
