data_stdin
_audit_creation_method 'critic2'
_audit_creation_date 2023-8-11
_chemical_formula_sum 'C14 H10'
_cell_formula_units_Z 8
_cell_length_a        19.3290987408
_cell_length_b        16.4258860121
_cell_length_c         6.0005707556
_cell_angle_alpha        90.0016
_cell_angle_beta        90.0002
_cell_angle_gamma        90.0004
_cell_volume          1905.166649
_space_group_crystal_system orthorhombic
_space_group_IT_number 61
_space_group_name_H-M_alt 'Pbca'
_space_group_name_Hall '-P 2ac 2ab'
loop_
_symmetry_equiv_pos_site_id
_symmetry_equiv_pos_as_xyz
 1 'x,y,z'
 2 '-x,-y,-z'
 3 '-x,-1/2+y,-1/2-z'
 4 'x,-1/2-y,-1/2+z'
 5 '-1/2-x,-y,-1/2+z'
 6 '-1/2+x,y,-1/2-z'
 7 '-1/2+x,-1/2-y,-z'
 8 '-1/2-x,-1/2+y,z'
loop_
_atom_site_label
_atom_site_type_symbol
_atom_site_fract_x
_atom_site_fract_y
_atom_site_fract_z
H1    H     0.82017555999946 0.20938843030372 0.17900016065388 
H2    H     0.94452769004695 0.19819029976121 0.12348371082891 
H3    H     0.71641592997191 0.20405328010101 0.21076930020820 
H4    H     0.59243984974453 0.20607062007902 0.27942032022534 
H5    H     0.01709806978630 0.11586255005085 0.38710082080202 
H6    H     0.96199854981570 0.05061961984308 0.71584396004213 
H7    H     0.86131569016693 0.02654752974396 0.95043310990061 
H8    H     0.73619503984504 0.03945450979000 0.02069515011952 
H9    H     0.62163458002862 0.07699447003194 0.89823284941823 
H10   H     0.54269402003380 0.14222590026057 0.62265441083175 
C1    C     0.85023224975050 0.17441424014557 0.29828458067181 
C2    C     0.81723045016944 0.13667883994491 0.48126010004920 
C3    C     0.74289143003098 0.14016514970685 0.51667448997778 
C4    C     0.92101487014649 0.16796337030323 0.26623388927824 
C5    C     0.85917884025221 0.09322750986775 0.63739362037710 
C6    C     0.69689133986819 0.17638604007678 0.36280387925129 
C7    C     0.71441816014000 0.10416214989590 0.71326077994626 
C8    C     0.96171727993791 0.12223627991495 0.41525063072444 
C9    C     0.93107091978946 0.08580180997513 0.59827069061340 
C10   C     0.62617826001912 0.17692485970915 0.40055620932672 
C11   C     0.82830272994514 0.05831221980387 0.83186905049576 
C12   C     0.75899909986481 0.06495790011892 0.87033649050457 
C13   C     0.64205138983217 0.10554743998836 0.74807312945745 
C14   C     0.59832649989579 0.14119945028864 0.59393047966915 
