data_stdin
_audit_creation_method 'critic2'
_audit_creation_date 2023-8-11
_chemical_formula_sum 'C14 H10'
_cell_formula_units_Z 4
_cell_length_a        19.0250437200
_cell_length_b         5.9570186609
_cell_length_c         8.3968444103
_cell_angle_alpha        90.0006
_cell_angle_beta        90.0005
_cell_angle_gamma        90.0009
_cell_volume           951.635709
_space_group_crystal_system orthorhombic
_space_group_IT_number 29
_space_group_name_H-M_alt 'Pca2_1'
_space_group_name_Hall 'P 2c -2ac'
loop_
_symmetry_equiv_pos_site_id
_symmetry_equiv_pos_as_xyz
 1 'x,y,z'
 2 '-x,-y,-1/2+z'
 3 '-1/2-x,y,-1/2+z'
 4 '-1/2+x,-y,z'
loop_
_atom_site_label
_atom_site_type_symbol
_atom_site_fract_x
_atom_site_fract_y
_atom_site_fract_z
H1    H     0.14735160007983 0.94576403988020 0.96224854956850 
H2    H     0.27145224003649 0.03827927991343 0.00641002945666 
H3    H     0.04421151004159 0.89306753985268 0.93998823972549 
H4    H     0.91813119019480 0.84024047945637 0.91088963998633 
H5    H     0.32241603978641 0.39182248014914 0.89504572003537 
H6    H     0.24697439015535 0.64818273919150 0.73705806941588 
H7    H     0.13390210010832 0.74800534046406 0.62231520991183 
H8    H     0.00778155997622 0.67592975011160 0.58639828053008 
H9    H     0.90299136000411 0.45557520012729 0.64185661052306 
H10   H     0.84539521011729 0.12027354985453 0.76357200962021 
C1    C     0.16833403006502 0.10044536007061 0.91280592000341 
C2    C     0.12352750024554 0.24714239023898 0.82759821987827 
C3    C     0.04876958025460 0.20563561051828 0.80724183998785 
C4    C     0.23856652001149 0.15152836967424 0.93689643047875 
C5    C     0.15335483024473 0.44733819076045 0.76247401991058 
C6    C     0.01448738987034 0.01703783028051 0.87335984035315 
C7    C     0.00724867990246 0.36502023991388 0.72152581956566 
C8    C     0.26743507009608 0.35061745956132 0.87451554036168 
C9    C     0.22534986013852 0.49456565007722 0.78767571054845 
C10   C     0.94265462989835 0.98726011010401 0.85758965974302 
C11   C     0.11008552986345 0.59776588955406 0.67293855024474 
C12   C     0.04006790979848 0.55808225960496 0.65289063983167 
C13   C     0.93383269996846 0.33146499970173 0.70706848985343 
C14   C     0.90186976018093 0.14554631985847 0.77439615952528 
