data_stdin
_audit_creation_method 'critic2'
_audit_creation_date 2023-8-11
_chemical_formula_sum 'C14 H10'
_cell_formula_units_Z 8
_cell_length_a        19.7158993116
_cell_length_b        16.9878063404
_cell_length_c         5.7977989804
_cell_angle_alpha        89.9997
_cell_angle_beta        89.9998
_cell_angle_gamma        89.9997
_cell_volume          1941.856113
_space_group_crystal_system orthorhombic
_space_group_IT_number 61
_space_group_name_H-M_alt 'Pbca'
_space_group_name_Hall '-P 2ac 2ab'
loop_
_symmetry_equiv_pos_site_id
_symmetry_equiv_pos_as_xyz
 1 'x,y,z'
 2 '-x,-y,-z'
 3 '-x,-1/2+y,-1/2-z'
 4 'x,-1/2-y,-1/2+z'
 5 '-1/2-x,-y,-1/2+z'
 6 '-1/2+x,y,-1/2-z'
 7 '-1/2+x,-1/2-y,-z'
 8 '-1/2-x,-1/2+y,z'
loop_
_atom_site_label
_atom_site_type_symbol
_atom_site_fract_x
_atom_site_fract_y
_atom_site_fract_z
H1    H     0.34477014008973 0.03642665020661 0.17454388062439 
H2    H     0.22138466005606 0.04095845012923 0.18325458914976 
H3    H     0.44644021022033 0.04189789973515 0.16285231961484 
H4    H     0.57015930996900 0.04807298994401 0.16436972989596 
H5    H     0.16085096993567 0.11543070998520 0.49532157053919 
H6    H     0.22765090003217 0.17879628007729 0.80842535921324 
H7    H     0.33489496975245 0.20889651016675 0.99152586933821 
H8    H     0.45974804984028 0.20938384979794 0.98744202934660 
H9    H     0.56616629022134 0.17998510013989 0.79932942028367 
H10   H     0.63183702993128 0.11816659001907 0.47964132051478 
C1    C     0.32013732996920 0.06787589971018 0.31460038058747 
C2    C     0.35952100010726 0.10499369974289 0.48677461020058 
C3    C     0.43319599996375 0.10632546019036 0.48272928065923 
C4    C     0.24989145975159 0.07094776025491 0.31805830017543 
C5    C     0.32466214975750 0.14397477986903 0.67043172947721 
C6    C     0.47179763010620 0.07210246990181 0.30364738021503 
C7    C     0.46869144995727 0.14502742999575 0.66514640078897 
C8    C     0.21599244013713 0.11200903999623 0.49466964070972 
C9    C     0.25299326016980 0.14727774016947 0.66908987962846 
C10   C     0.54188705983134 0.07611915983287 0.30312902047371 
C11   C     0.36246285005253 0.18067637973191 0.85161206983416 
C12   C     0.43159831981135 0.18097963013138 0.84927745920736 
C13   C     0.54036481982955 0.14891252990011 0.66006468029251 
C14   C     0.57669171990738 0.11511643017322 0.48164139013461 
