data_stdin
_audit_creation_method 'critic2'
_audit_creation_date 2023-8-11
_chemical_formula_sum 'C14 H10'
_cell_formula_units_Z 4
_cell_length_a         8.0894952993
_cell_length_b        10.0527562400
_cell_length_c        11.6904655378
_cell_angle_alpha        90.0000
_cell_angle_beta        84.3321
_cell_angle_gamma        90.0000
_cell_volume           946.040901
_space_group_crystal_system monoclinic
_space_group_IT_number 14
_space_group_name_H-M_alt 'P2_1/c'
_space_group_name_Hall '-P 2ybc'
loop_
_symmetry_equiv_pos_site_id
_symmetry_equiv_pos_as_xyz
 1 'x,y,z'
 2 '-x,-y,-z'
 3 '-x,-1/2+y,-1/2-z'
 4 'x,-1/2-y,-1/2+z'
loop_
_atom_site_label
_atom_site_type_symbol
_atom_site_fract_x
_atom_site_fract_y
_atom_site_fract_z
H1    H     0.11160649035351 0.08116237001414 0.78733004039280 
H2    H     0.04237635026687 0.85950508994694 0.72127117011500 
H3    H     0.16885015995262 0.25905208999888 0.84565460030219 
H4    H     0.24629395016299 0.47534369989993 0.91986624031610 
H5    H     0.09576841930804 0.65847524049693 0.83774330038251 
H6    H     0.22678440051328 0.68492541028240 0.02022189999856 
H7    H     0.35047151063621 0.82243867039148 0.15850443983069 
H8    H     0.43014380026447 0.04381776001224 0.22779027005808 
H9    H     0.43835603032710 0.28401272007745 0.20856842987775 
H10   H     0.38176848029658 0.49044049979538 0.10262244994828 
C1    C     0.13755059025758 0.99561501000540 0.83947719966452 
C2    C     0.21136791977790 0.01379608048709 0.94287731010093 
C3    C     0.25591502952872 0.14371342023222 0.98440072963890 
C4    C     0.09819487969702 0.87002749967171 0.80180050989064 
C5    C     0.24469945994241 0.89845911972503 0.00807569961584 
C6    C     0.22663507971064 0.26281270967159 0.92562497984794 
C7    C     0.33386003964879 0.15281433025325 0.08850602964197 
C8    C     0.12910369002016 0.75678686996969 0.86710136041916 
C9    C     0.20127507040091 0.77146103978418 0.96869146003382 
C10   C     0.27062082036599 0.38540589979726 0.96731983985250 
C11   C     0.32389413991507 0.91233442992974 0.11157065009151 
C12   C     0.36727563982575 0.03426253989368 0.14997162026042 
C13   C     0.37843166977084 0.27900679983694 0.12923204011267 
C14   C     0.34679007973643 0.39396626985790 0.07022219001168 
