data_stdin
_audit_creation_method 'critic2'
_audit_creation_date 2023-8-11
_chemical_formula_sum 'C14 H10'
_cell_formula_units_Z 8
_cell_length_a        20.0383466916
_cell_length_b         5.4131180815
_cell_length_c        19.9409147168
_cell_angle_alpha        90.0028
_cell_angle_beta        65.2951
_cell_angle_gamma        89.9999
_cell_volume          1965.016047
_space_group_crystal_system monoclinic
_space_group_IT_number 15
_space_group_name_H-M_alt 'C2/c'
_space_group_name_Hall '-C 2yc'
loop_
_symmetry_equiv_pos_site_id
_symmetry_equiv_pos_as_xyz
 1 'x,y,z'
 2 '-1/2-x,-1/2-y,-z'
 3 '-x,y,-1/2-z'
 4 'x,-y,-1/2+z'
 5 '-1/2+x,-1/2+y,z'
 6 '-x,-y,-z'
 7 '-1/2-x,-1/2+y,-1/2-z'
 8 '-1/2+x,-1/2-y,-1/2+z'
loop_
_atom_site_label
_atom_site_type_symbol
_atom_site_fract_x
_atom_site_fract_y
_atom_site_fract_z
H1    H     0.28708559991521 0.58264259045694 0.25175362988533 
H2    H     0.29292412992304 0.58330880062155 0.37126447006706 
H3    H     0.28474254985919 0.57765273047065 0.15274226994743 
H4    H     0.28294877982303 0.55652941003281 0.03151803982294 
H5    H     0.36661851980109 0.26331395957005 0.40131260007583 
H6    H     0.43040642996961 0.93528182961264 0.30990061995500 
H7    H     0.46189626999002 0.73820770997235 0.19055059007362 
H8    H     0.45871698001287 0.73063071039930 0.06832460975611 
H9    H     0.41897980007175 0.90465073051232 0.97922571002818 
H10   H     0.34992927019627 0.21966968988173 0.94280984978341 
C1    C     0.31881984988162 0.43966891949484 0.26334746020367 
C2    C     0.35553443020301 0.25778455972732 0.20967694993079 
C3    C     0.35328418996538 0.25230991966581 0.13778693986558 
C4    C     0.32235005987144 0.44094198015047 0.33126732015029 
C5    C     0.39600411034210 0.07176966060590 0.22762506974493 
C6    C     0.31457752999994 0.42912074955647 0.11564919024307 
C7    C     0.39137363013120 0.06017277998336 0.08708137997494 
C8    C     0.36329677006813 0.25992619056743 0.34819500978054 
C9    C     0.39904374022046 0.07757866911779 0.29718495975756 
C10   C     0.31349787019146 0.41768246991499 0.04669524995794 
C11   C     0.43289967977776 0.88193340087694 0.17510436998599 
C12   C     0.43079462977389 0.87657569960689 0.10766318002805 
C13   C     0.38928714994815 0.05222863981543 0.01710739991652 
C14   C     0.35108898005842 0.22814360978578 0.99685978991492 
