data_stdin
_audit_creation_method 'critic2'
_audit_creation_date 2023-8-11
_chemical_formula_sum 'C14 H10'
_cell_formula_units_Z 4
_cell_length_a         5.7819748206
_cell_length_b         5.7820236620
_cell_length_c        28.1256261510
_cell_angle_alpha        90.0017
_cell_angle_beta        89.9988
_cell_angle_gamma        89.9996
_cell_volume           940.282298
_space_group_crystal_system tetragonal
_space_group_IT_number 78
_space_group_name_H-M_alt 'P4_3'
_space_group_name_Hall 'P 4cw'
loop_
_symmetry_equiv_pos_site_id
_symmetry_equiv_pos_as_xyz
 1 'x,y,z'
 2 '-y,x,-1/4+z'
 3 '-x,-y,-1/2+z'
 4 'y,-x,-3/4+z'
loop_
_atom_site_label
_atom_site_type_symbol
_atom_site_fract_x
_atom_site_fract_y
_atom_site_fract_z
H1    H     0.90322880950394 0.49783021029557 0.99636394001453 
H2    H     0.60827280013227 0.46628896964584 0.93467818014351 
H3    H     0.13303624080291 0.52610251992088 0.04894544013096 
H4    H     0.41246691982921 0.57409321043632 0.11339374015734 
H5    H     0.30191001082936 0.77279118989497 0.92618451006382 
H6    H     0.29903384922253 0.10404454946199 0.98151142007431 
H7    H     0.46113074061290 0.31429574947623 0.04829776001900 
H8    H     0.75018669921643 0.35189300968283 0.11278430007750 
H9    H     0.07684370937762 0.20520432047495 0.15673435999710 
H10   H     0.39003683052656 0.91393783980238 0.16783526005498 
C1    C     0.77330831966347 0.63298497059358 0.99350312016526 
C2    C     0.77459034917589 0.81958218987352 0.02594595998684 
C3    C     0.94234339942356 0.84026554015977 0.06418018983068 
C4    C     0.60578233954494 0.61467420970968 0.95850019994889 
C5    C     0.59957445976624 0.99239061931376 0.02102740996169 
C6    C     0.11905712013033 0.67601475075781 0.07208021982657 
C7    C     0.92955777027919 0.03429061075619 0.09555944015380 
C8    C     0.43334597960292 0.78519060084814 0.95384241008211 
C9    C     0.43204385056550 0.97152552965838 0.98466435994678 
C10   C     0.27659711979275 0.70215310082907 0.10871917013474 
C11   C     0.59468938931635 0.18396338975654 0.05314752014288 
C12   C     0.75321971028697 0.20460400012115 0.08873498005983 
C13   C     0.09121763079153 0.05646032055002 0.13309207985761 
C14   C     0.26348022986199 0.89359325957493 0.13947102003573 
