data_stdin
_audit_creation_method 'critic2'
_audit_creation_date 2023-8-11
_chemical_formula_sum 'C14 H10'
_cell_formula_units_Z 4
_cell_length_a         5.2204280295
_cell_length_b        37.0639495140
_cell_length_c         6.2772166500
_cell_angle_alpha        89.9980
_cell_angle_beta        53.4657
_cell_angle_gamma        89.9978
_cell_volume           975.912840
_space_group_crystal_system monoclinic
_space_group_IT_number 14
_space_group_name_H-M_alt 'P2_1/c'
_space_group_name_Hall '-P 2ybc'
loop_
_symmetry_equiv_pos_site_id
_symmetry_equiv_pos_as_xyz
 1 'x,y,z'
 2 '-x,-y,-z'
 3 '-x,-1/2+y,-1/2-z'
 4 'x,-1/2-y,-1/2+z'
loop_
_atom_site_label
_atom_site_type_symbol
_atom_site_fract_x
_atom_site_fract_y
_atom_site_fract_z
H1    H     0.47509819035073 0.40115980994563 0.01365952972285 
H2    H     0.48504017023746 0.46697814001647 0.00827377988333 
H3    H     0.47992897866950 0.34751411997200 0.01093715091478 
H4    H     0.50206503043121 0.28171362995473 0.99879883042616 
H5    H     0.00357795072562 0.50027962997579 0.74792582924805 
H6    H     0.51218461987345 0.46577086988060 0.49362571080349 
H7    H     0.80122580034686 0.40922874990196 0.35039968923915 
H8    H     0.80723713953129 0.34251578994422 0.34702117964025 
H9    H     0.52870422023506 0.28534681987331 0.48424661958373 
H10   H     0.02599529124702 0.24964420005268 0.73539951956516 
C1    C     0.70416443046241 0.41484507005455 0.89892088053747 
C2    C     0.98923129025535 0.39452339013092 0.75613769096261 
C3    C     0.99275887010801 0.35534754002462 0.75415615054680 
C4    C     0.70901994923345 0.45218360003044 0.89626130077567 
C5    C     0.28498796014534 0.41360637999564 0.60793575925899 
C6    C     0.71144181974648 0.33436707989079 0.89482768986332 
C7    C     0.29193003094887 0.33694929988032 0.60402873979681 
C8    C     0.00093408998462 0.47089672991400 0.74975182089643 
C9    C     0.28401046934343 0.45175920006602 0.60809223031624 
C10   C     0.72315169059708 0.29704757000321 0.88833469023806 
C11   C     0.57920179070827 0.39400025986705 0.46100778025513 
C12   C     0.58253009011837 0.35723137004688 0.45913542063139 
C13   C     0.29791790939000 0.29880356006130 0.60023453060502 
C14   C     0.01836525029760 0.27901517991414 0.73992702944182 
