data_stdin
_audit_creation_method 'critic2'
_audit_creation_date 2023-8-11
_chemical_formula_sum 'C14 H10'
_cell_formula_units_Z 8
_cell_length_a        20.1714675300
_cell_length_b         8.8070361303
_cell_length_c        10.7611581107
_cell_angle_alpha        90.0001
_cell_angle_beta        90.0007
_cell_angle_gamma        89.9995
_cell_volume          1911.728813
_space_group_crystal_system orthorhombic
_space_group_IT_number 61
_space_group_name_H-M_alt 'Pbca'
_space_group_name_Hall '-P 2ac 2ab'
loop_
_symmetry_equiv_pos_site_id
_symmetry_equiv_pos_as_xyz
 1 'x,y,z'
 2 '-x,-y,-z'
 3 '-1/2+x,-1/2-y,-z'
 4 '-1/2-x,-1/2+y,z'
 5 '-x,-1/2+y,-1/2-z'
 6 'x,-1/2-y,-1/2+z'
 7 '-1/2-x,-y,-1/2+z'
 8 '-1/2+x,y,-1/2-z'
loop_
_atom_site_label
_atom_site_type_symbol
_atom_site_fract_x
_atom_site_fract_y
_atom_site_fract_z
H1    H     0.14541721018044 0.06906071021413 0.42466599003772 
H2    H     0.02909455990791 0.13817110966660 0.45409698966462 
H3    H     0.24121021016714 0.04158774994198 0.38166018017335 
H4    H     0.35557445981820 0.96667857018141 0.34233017967916 
H5    H     0.94472300999055 0.07493379991690 0.29339043026575 
H6    H     0.97838568017899 0.92893033981123 0.10546487996071 
H7    H     0.06336500993046 0.79740122045236 0.98255883982553 
H8    H     0.17894098014987 0.71591990992889 0.95380063958613 
H9    H     0.29406792020502 0.71112276042363 0.02076830027491 
H10   H     0.38372025988246 0.79785159038853 0.16308825992239 
C1    C     0.10973821986858 0.03907849008403 0.35309598043306 
C2    C     0.13077356978607 0.95966532944839 0.24598185969683 
C3    C     0.19960571981623 0.91925253042201 0.22461202014876 
C4    C     0.04398630986326 0.07867923023880 0.36994944038053 
C5    C     0.08188770985047 0.91750929947940 0.15630384040555 
C6    C     0.25169043018129 0.96817774949243 0.30284905000954 
C7    C     0.21607442017257 0.82780346031453 0.11957377012194 
C8    C     0.99617051006089 0.04146910021921 0.27966088014465 
C9    C     0.01506037017632 0.96126581002188 0.17497011964594 
C10   C     0.31674325003357 0.92629416967597 0.28027684990178 
C11   C     0.10107707997618 0.82952815966864 0.05021958002914 
C12   C     0.16518797979938 0.78411442009358 0.03405569021008 
C13   C     0.28275806004357 0.78412035036992 0.09976030003613 
C14   C     0.33257239976519 0.83247117952534 0.17867004029942 
