data_stdin
_audit_creation_method 'critic2'
_audit_creation_date 2023-8-11
_chemical_formula_sum 'C14 H10'
_cell_formula_units_Z 4
_cell_length_a         8.3382265700
_cell_length_b         6.0234280101
_cell_length_c        18.9825418000
_cell_angle_alpha        89.9999
_cell_angle_beta        90.0001
_cell_angle_gamma        90.0004
_cell_volume           953.392609
_space_group_crystal_system orthorhombic
_space_group_IT_number 33
_space_group_name_H-M_alt 'Pna2_1'
_space_group_name_Hall 'P 2c -2n'
loop_
_symmetry_equiv_pos_site_id
_symmetry_equiv_pos_as_xyz
 1 'x,y,z'
 2 '-x,-y,-1/2+z'
 3 '-1/2-x,-1/2+y,-1/2+z'
 4 '-1/2+x,-1/2-y,z'
loop_
_atom_site_label
_atom_site_type_symbol
_atom_site_fract_x
_atom_site_fract_y
_atom_site_fract_z
H1    H     0.06065762038638 0.88067202939538 0.99299528001372 
H2    H     0.11544680035720 0.83962776005678 0.11858818023888 
H3    H     0.01501591003001 0.90079764998341 0.88874543021743 
H4    H     0.95519994954419 0.90682711988509 0.76302552013437 
H5    H     0.26210231059830 0.50447322984657 0.16391575026217 
H6    H     0.35320337036498 0.21539866955930 0.07975683995190 
H7    H     0.37413991008651 0.06942944065799 0.96246408983849 
H8    H     0.31703273995414 0.09203445936273 0.83519011998645 
H9    H     0.19263801996967 0.27754170995331 0.73616241018416 
H10   H     0.04193148943069 0.59473194006619 0.68494282997238 
C1    C     0.12572063007056 0.73477107010145 0.01087477998754 
C2    C     0.17514104027974 0.57144910017855 0.96190677005652 
C3    C     0.14074562059561 0.58480194951762 0.88691753999637 
C4    C     0.15670470003762 0.71179881028548 0.08225434993571 
C5    C     0.25871899942500 0.38153734068385 0.98818767992976 
C6    C     0.05575297980454 0.76331141937744 0.85628036013150 
C7    C     0.19127140012843 0.40763100919672 0.84197658978020 
C8    C     0.23920699959842 0.52419580956581 0.10777010980477 
C9    C     0.28958248976256 0.36221253993749 0.06117898998865 
C10   C     0.02209156001016 0.76771555930543 0.78478607998444 
C11   C     0.30971906983231 0.21088101981160 0.94086955984686 
C12   C     0.27796082053948 0.22362303951079 0.87056549989906 
C13   C     0.15442485942355 0.41525161929489 0.76932480021597 
C14   C     0.07117496990444 0.59232541068233 0.74082272993030 
