data_stdin
_audit_creation_method 'critic2'
_audit_creation_date 2023-8-11
_chemical_formula_sum 'C14 H10'
_cell_formula_units_Z 4
_cell_length_a         7.7320367627
_cell_length_b        23.1624283004
_cell_length_c         5.4709144127
_cell_angle_alpha        90.0071
_cell_angle_beta        90.0001
_cell_angle_gamma        90.0029
_cell_volume           979.801083
_space_group_crystal_system orthorhombic
_space_group_IT_number 33
_space_group_name_H-M_alt 'Pna2_1'
_space_group_name_Hall 'P 2c -2n'
loop_
_symmetry_equiv_pos_site_id
_symmetry_equiv_pos_as_xyz
 1 'x,y,z'
 2 '-x,-y,-1/2+z'
 3 '-1/2-x,-1/2+y,-1/2+z'
 4 '-1/2+x,-1/2-y,z'
loop_
_atom_site_label
_atom_site_type_symbol
_atom_site_fract_x
_atom_site_fract_y
_atom_site_fract_z
H1    H     0.47853489058714 0.46243064994117 0.87183318010455 
H2    H     0.74920997964616 0.51607585012111 0.88931314955614 
H3    H     0.26158254939529 0.41596238987098 0.86204486076659 
H4    H     0.99782979999601 0.35765120017397 0.86053142031553 
H5    H     0.96628895013305 0.49565114996647 0.21821652015991 
H6    H     0.90185369047754 0.42162951000111 0.53263204997236 
H7    H     0.70926088039054 0.35036344988365 0.71290250056518 
H8    H     0.43724399005140 0.29470811015932 0.70571300090308 
H9    H     0.16529429986405 0.26947942983021 0.51079302976057 
H10   H     0.94655812935337 0.28344564979789 0.18469860048373 
C1    C     0.56927612974175 0.45271369006883 0.01775068980553 
C2    C     0.52957074045507 0.41003022987934 0.19358574089295 
C3    C     0.36993390001882 0.37691258010904 0.18842000025176 
C4    C     0.72344313937521 0.48317435994729 0.02674309041693 
C5    C     0.65233573952747 0.39932114991818 0.38359841986881 
C6    C     0.24256619037437 0.38415068988269 0.00550431064267 
C7    C     0.33954532970249 0.33476003984852 0.37410757061738 
C8    C     0.84466107042007 0.47205476014776 0.21269908055206 
C9    C     0.80875983057366 0.43085324997769 0.38836947961632 
C10   C     0.09331019053010 0.35109278007526 0.00406859028837 
C11   C     0.61541360021970 0.35699911011951 0.56709140987619 
C12   C     0.46509700016191 0.32624279991986 0.56321913048574 
C13   C     0.18592519974332 0.30164433013872 0.36869851041822 
C14   C     0.06425024972964 0.30929778007607 0.18608634089839 
