data_stdin
_audit_creation_method 'critic2'
_audit_creation_date 2023-8-11
_chemical_formula_sum 'C14 H10'
_cell_formula_units_Z 8
_cell_length_a         6.0210836610
_cell_length_b         8.2947902896
_cell_length_c        38.7299363748
_cell_angle_alpha        89.9256
_cell_angle_beta        81.0856
_cell_angle_gamma        89.9912
_cell_volume          1910.947197
_space_group_crystal_system triclinic
_space_group_IT_number 1
_space_group_name_H-M_alt 'P1'
_space_group_name_Hall 'P 1'
loop_
_symmetry_equiv_pos_site_id
_symmetry_equiv_pos_as_xyz
 1 'x,y,z'
loop_
_atom_site_label
_atom_site_type_symbol
_atom_site_fract_x
_atom_site_fract_y
_atom_site_fract_z
H1    H     0.76919542971528 0.74655702946914 0.59314572994387 
H2    H     0.94784663010036 0.75358247035818 0.40700063005448 
H3    H     0.23983699956688 0.24663291946599 0.90700963991357 
H4    H     0.04410122948963 0.25378150016471 0.09318173992311 
H5    H     0.23087413004013 0.25385147008675 0.40684993010637 
H6    H     0.05214823076602 0.24684203981062 0.59299881008331 
H7    H     0.76016156009950 0.75295947950395 0.09298549997202 
H8    H     0.95586472039839 0.74580740046460 0.90681126996511 
H9    H     0.85410541065211 0.79013724971136 0.53029956999982 
H10   H     0.90948185925378 0.71078776957064 0.46985884993712 
H11   H     0.15243491930487 0.28961873053237 0.96982515009020 
H12   H     0.08578274953058 0.21031248001476 0.03035526003784 
H13   H     0.14598059011888 0.21031772979659 0.46969760987035 
H14   H     0.09048958947537 0.28967801027248 0.53014195008881 
H15   H     0.84754124088581 0.70991411046879 0.03017173988174 
H16   H     0.91419167949203 0.78921832045026 0.96963956992999 
H17   H     0.71690246008272 0.70320553055621 0.64463070008472 
H18   H     0.99705346976992 0.79700108976112 0.35551485007927 
H19   H     0.29343752056809 0.20269740021105 0.85558130996595 
H20   H     0.99275173973654 0.29695741973575 0.14463862990190 
H21   H     0.28314908941013 0.29717560968921 0.35536422008237 
H22   H     0.00294127931464 0.20336723008653 0.64448295992960 
H23   H     0.70658174954327 0.79694159008974 0.14441267991718 
H24   H     0.00720580087221 0.70267736958620 0.85535320987104 
H25   H     0.67356761946482 0.64333318961131 0.70690458994217 
H26   H     0.07647782943484 0.85689374985823 0.29323295997303 
H27   H     0.33863647056537 0.14248651996789 0.79334630008097 
H28   H     0.91126013924028 0.35602512025630 0.20690292002507 
H29   H     0.32649444036108 0.35697579956259 0.29308686999547 
H30   H     0.92350364082494 0.14339011023149 0.70676055994798 
H31   H     0.66142512938518 0.85722624004310 0.20664390996773 
H32   H     0.08867653037436 0.64367833019138 0.79308546010737 
H33   H     0.20495694998809 0.93298360032593 0.50392606008380 
H34   H     0.20914266922937 0.56855868952253 0.49606679010722 
H35   H     0.80009189953201 0.43141160945655 0.99588383012171 
H36   H     0.78854467031476 0.06715449043208 0.00388919005003 
H37   H     0.79513506985087 0.06748080988398 0.49607799993906 
H38   H     0.79079845993915 0.43190343962653 0.50394064007736 
H39   H     0.19987286915978 0.56810003951256 0.00411649011041 
H40   H     0.21142280936945 0.93236311027072 0.99611021003919 
H41   H     0.46828286050874 0.03562002978777 0.54269824001589 
H42   H     0.54903274078242 0.46594214943720 0.45711597998100 
H43   H     0.53806313958426 0.53373054962190 0.95683833005818 
H44   H     0.44717197992789 0.96446038983869 0.04256681997239 
H45   H     0.53179253014078 0.96481921009795 0.45731134010421 
H46   H     0.45090710967767 0.53448340043766 0.54289688993300 
H47   H     0.46191909029792 0.46582433975592 0.04316380007905 
H48   H     0.55277765997296 0.03510362943325 0.95743533996484 
H49   H     0.57342373074540 0.06833363034245 0.60000523995323 
H50   H     0.76668427028363 0.43249694055077 0.39973457003273 
H51   H     0.43559854062234 0.56718776956452 0.89934544001338 
H52   H     0.22665250056279 0.93156881969280 0.09978413988666 
H53   H     0.42662866950356 0.93206882030930 0.40000642006696 
H54   H     0.23327908996194 0.56789673027013 0.60028036990077 
H55   H     0.56440283980371 0.43242189006711 0.10065617999595 
H56   H     0.77328903051298 0.06804672953739 0.90021827992149 
H57   H     0.50524834079431 0.02022188995781 0.66363669002184 
H58   H     0.82368611016114 0.48026970975931 0.33609370000949 
H59   H     0.50632606043892 0.51955949952211 0.83572356996002 
H60   H     0.16666010011103 0.97958849057506 0.16339308994486 
H61   H     0.49479690951989 0.98012814008640 0.33637300990685 
H62   H     0.17629347930843 0.52007790059311 0.66391963013125 
H63   H     0.49369881915890 0.48010363947092 0.16427600011495 
H64   H     0.83328003927063 0.02007132968536 0.83660769991041 
H65   H     0.28493114942210 0.90172718036404 0.71492835989241 
H66   H     0.70418720936401 0.59847619006711 0.28488891997981 
H67   H     0.72834390948815 0.40112374968473 0.78462778003199 
H68   H     0.28360504984579 0.09796485034713 0.21471388993975 
H69   H     0.71513832009946 0.09854746977876 0.28507533994912 
H70   H     0.29577628954280 0.40179114003197 0.71511819996288 
H71   H     0.27171485035561 0.59859673996226 0.21536839002684 
H72   H     0.71631623009171 0.90175386972107 0.78528264005345 
H73   H     0.95472870081375 0.74300617973578 0.74313882986541 
H74   H     0.42945839047492 0.75738663943214 0.25683331006193 
H75   H     0.05892094997545 0.24209511000190 0.75678745003707 
H76   H     0.55718966055822 0.25624544981291 0.24303145008454 
H77   H     0.04535430023593 0.25724011978346 0.25685633988737 
H78   H     0.57049972004575 0.24283952055977 0.74316442011617 
H79   H     0.94116069060146 0.75765282977824 0.24320414997782 
H80   H     0.44271917050182 0.74350646939820 0.75695891004840 
C1    C     0.92264355064629 0.81015453995385 0.58265506003580 
C2    C     0.08086332078006 0.69019976058603 0.41742676993509 
C3    C     0.08589809079449 0.30988554985362 0.91736319988142 
C4    C     0.91190485062972 0.19010672055259 0.08265393002641 
C5    C     0.07742609953381 0.19026171969767 0.41734382004291 
C6    C     0.91911922944585 0.31022446033681 0.58257567010955 
C7    C     0.91409690972517 0.68969867031566 0.08263361990188 
C8    C     0.08805725995937 0.80947683940552 0.91734119988516 
C9    C     0.07010299035362 0.86452823033344 0.60523086986763 
C10   C     0.27299557980217 0.63591120968456 0.39475638989720 
C11   C     0.93907824925677 0.36392066043684 0.89462678997368 
C12   C     0.71903180011358 0.13570868037876 0.10516323995700 
C13   C     0.92995757922678 0.13587274992380 0.39477098011191 
C14   C     0.72698471025401 0.36448936996108 0.60524891987118 
C15   C     0.06092241030352 0.63568332982347 0.10537100996595 
C16   C     0.28092417981186 0.86389670970005 0.89483349992315 
C17   C     0.03057724059147 0.83503492948534 0.64267847988234 
C18   C     0.30725395969710 0.66538482981129 0.35730832996063 
C19   C     0.97985158054405 0.33437147968608 0.85720144988397 
C20   C     0.68313000010353 0.16512941012790 0.14259613996566 
C21   C     0.96947725087073 0.16533737948830 0.35732236991205 
C22   C     0.69273406035947 0.33498570940960 0.64269588996643 
C23   C     0.02016193961425 0.66526311943973 0.14279529991537 
C24   C     0.31682452043251 0.83450326963011 0.85739962003222 
C25   C     0.97090121962044 0.83466491017233 0.54690273003654 
C26   C     0.05892837991914 0.66602036036685 0.45317817997181 
C27   C     0.03627541959589 0.33416489018351 0.95309365009387 
C28   C     0.93577437991064 0.16552406006199 0.04691483004090 
C29   C     0.02917939954927 0.16577483019569 0.45309694999115 
C30   C     0.94104135012827 0.33442732007389 0.54682506002933 
C31   C     0.96370789049657 0.66538758942537 0.04690410006841 
C32   C     0.06419139066131 0.83402867012465 0.95308126996477 
C33   C     0.27005051954875 0.94728696028596 0.59015217004775 
C34   C     0.44358294070941 0.55343799017070 0.40974433997253 
C35   C     0.73845168021153 0.44628278995533 0.90951922996012 
C36   C     0.54959164056112 0.05288394987845 0.09002841001095 
C37   C     0.73001138937581 0.05312249037577 0.40985350989378 
C38   C     0.55638214011114 0.44696286038953 0.59026467010852 
C39   C     0.26154542924558 0.55331231964591 0.09048029991477 
C40   C     0.45035829941973 0.94671665979357 0.90997071989071 
C41   C     0.84276232987889 0.74795836985669 0.65952426995668 
C42   C     0.15249407006077 0.75242952013943 0.34055104004562 
C43   C     0.16805912962752 0.24725102036783 0.84055313002933 
C44   C     0.83701722946562 0.25210727013185 0.15948871995352 
C45   C     0.15729053928965 0.25240409977794 0.34047262003287 
C46   C     0.84749687031032 0.24792229046574 0.65944877998417 
C47   C     0.83196504023566 0.75240147945895 0.15944147988763 
C48   C     0.16293590065233 0.74754077961758 0.84050427000088 
C49   C     0.19191114017090 0.89078679044238 0.66337503999867 
C50   C     0.50957076071048 0.60969991947338 0.33652160999592 
C51   C     0.81932365077524 0.39005568947024 0.83632364004206 
C52   C     0.48024309042193 0.10923793956153 0.16322632996825 
C53   C     0.80814394994910 0.10956086026782 0.33662841989358 
C54   C     0.49041298007831 0.39064744968589 0.66348538002157 
C55   C     0.18069884937146 0.60960028043721 0.16367374000297 
C56   C     0.51970554075082 0.89041321052412 0.83677094999619 
C57   C     0.16868880032782 0.91533071049443 0.53210339991320 
C58   C     0.22809060058838 0.58587043955730 0.46788769992407 
C59   C     0.83759029024212 0.41412776983066 0.96771526012800 
C60   C     0.76792805004874 0.08482604045770 0.03205902987993 
C61   C     0.83139327009805 0.08511792034106 0.46790014995553 
C62   C     0.77186251923004 0.41457617965986 0.53211921002267 
C63   C     0.16238784040258 0.58541349002839 0.03228426996462 
C64   C     0.23203355909353 0.91471930008168 0.96793956012633 
C65   C     0.31521489947305 0.97139087942559 0.55354973007932 
C66   C     0.41698315009647 0.52979784944346 0.44634914009999 
C67   C     0.69175266054178 0.47000748032067 0.94610829991468 
C68   C     0.57822476047314 0.02877134015473 0.05344068009961 
C69   C     0.68485816035134 0.02904340006114 0.44645676007607 
C70   C     0.58296831948760 0.47062689024978 0.55366067998311 
C71   C     0.30823290019883 0.52955539007715 0.05389216002844 
C72   C     0.42172816057485 0.97079850957289 0.94655941004857 
C73   C     0.81646567074650 0.71518215939535 0.69500944993195 
C74   C     0.19622801041513 0.78527680051162 0.30506295990072 
C75   C     0.19541079046394 0.21428413035012 0.80508895999995 
C76   C     0.79208025930640 0.28450379007364 0.19497058994471 
C77   C     0.18359047944433 0.28514169005030 0.30498574993033 
C78   C     0.80375510951519 0.21502665994983 0.69493472988628 
C79   C     0.80463606064427 0.78540830028063 0.19490378006698 
C80   C     0.20786091079222 0.71518295037487 0.80502064994797 
C81   C     0.42381079961054 0.00410953005855 0.61209364008681 
C82   C     0.64066519008479 0.49652141023975 0.38770836002925 
C83   C     0.58563479987021 0.50313913047567 0.88739782990400 
C84   C     0.35178712929824 0.99588876945999 0.11190925995535 
C85   C     0.57624248056299 0.99628379022751 0.38791498011819 
C86   C     0.35930496083510 0.50386572043928 0.61230366988984 
C87   C     0.41436931936118 0.49647687011187 0.11260247994769 
C88   C     0.64815863076230 0.00373058021881 0.88809140001973 
C89   C     0.38598451995328 0.97754373952652 0.64727065998135 
C90   C     0.67204284056687 0.52293298057222 0.35252995990316 
C91   C     0.62484575047744 0.47680520008356 0.85223153996868 
C92   C     0.31876458934484 0.02238994960148 0.14707283002271 
C93   C     0.61406489013862 0.02282077042261 0.35273692991269 
C94   C     0.32793559945185 0.47742807045784 0.64748110988607 
C95   C     0.37517161970297 0.52284075048493 0.14776766007669 
C96   C     0.68118011992837 0.97725420031115 0.85292691009614 
C97   C     0.16003513952461 0.85760675951740 0.69964252996999 
C98   C     0.54918295061218 0.64282353990323 0.30024869994036 
C99   C     0.85243968987601 0.35687552947180 0.80007054006142 
C100  C     0.43924572062472 0.14213056978368 0.19948514005475 
C101  C     0.84002611986384 0.14269852983632 0.30035916994837 
C102  C     0.45079120039612 0.35747302997369 0.69975615991685 
C103  C     0.14760556064968 0.64282013998961 0.19992517990288 
C104  C     0.56068977997268 0.85756044024869 0.80051045010610 
C105  C     0.97589907069359 0.77008775940545 0.71530823992456 
C106  C     0.39587243934992 0.73041178988951 0.28467414999133 
C107  C     0.03678914045295 0.26915825030766 0.78461033996408 
C108  C     0.59190507034125 0.22943563954659 0.21520560008395 
C109  C     0.02416406959742 0.23020372054962 0.28468912009143 
C110  C     0.60410083993841 0.26986062059403 0.71532581012883 
C111  C     0.96326869069517 0.73055683006615 0.21538287990082 
C112  C     0.40802657075015 0.77027449056231 0.78478680996868 
