data_stdin
_audit_creation_method 'critic2'
_audit_creation_date 2023-8-11
_chemical_formula_sum 'C14 H10'
_cell_formula_units_Z 4
_cell_length_a         9.4840187419
_cell_length_b         9.6223152707
_cell_length_c        10.5337147678
_cell_angle_alpha        89.9993
_cell_angle_beta        75.2311
_cell_angle_gamma        89.9996
_cell_volume           929.529035
_space_group_crystal_system monoclinic
_space_group_IT_number 14
_space_group_name_H-M_alt 'P2_1/c'
_space_group_name_Hall '-P 2ybc'
loop_
_symmetry_equiv_pos_site_id
_symmetry_equiv_pos_as_xyz
 1 'x,y,z'
 2 '-x,-y,-z'
 3 '-x,-1/2+y,-1/2-z'
 4 'x,-1/2-y,-1/2+z'
loop_
_atom_site_label
_atom_site_type_symbol
_atom_site_fract_x
_atom_site_fract_y
_atom_site_fract_z
H1    H     0.87044232022554 0.08963534032368 0.31443836973902 
H2    H     0.60917307978528 0.10686068992763 0.41122939018514 
H3    H     0.08512694977989 0.06434206997033 0.23991337963166 
H4    H     0.34390370057850 0.03565242013138 0.13521963970968 
H5    H     0.43637425970823 0.94265259004537 0.34503645023251 
H6    H     0.53263115999604 0.75906772041188 0.18038673994763 
H7    H     0.73598804944817 0.64670525967693 0.02447619027010 
H8    H     0.99901885020323 0.62794012950384 0.91970210955045 
H9    H     0.24685008035333 0.70617897990598 0.89359274966725 
H10   H     0.42892289026596 0.85697150990577 0.95984468017743 
C1    C     0.79895905042310 0.01475108982158 0.28507909976523 
C2    C     0.85741212005036 0.91114734984081 0.19148539957566 
C3    C     0.01265463984422 0.89799178957389 0.13156060048654 
C4    C     0.65029456035444 0.02521669964248 0.33990774030912 
C5    C     0.75848619053617 0.81774079047757 0.15329220955485 
C6    C     0.11827022955770 0.98360219003613 0.16606159000282 
C7    C     0.06188352012850 0.79476846979247 0.03275957007115 
C8    C     0.55326608038647 0.93261744967842 0.30270561970354 
C9    C     0.60702463970380 0.83044273023240 0.21079031961328 
C10   C     0.26541882991922 0.96791927008339 0.10649579024693 
C11   C     0.81312096043888 0.71494523026135 0.05484891995813 
C12   C     0.95862892998977 0.70472071966414 0.99630159002751 
C13   C     0.21246069997137 0.78292174022107 0.97142784974425 
C14   C     0.31333627046884 0.86727630973347 0.00802902002563 
