data_stdin
_audit_creation_method 'critic2'
_audit_creation_date 2023-8-11
_chemical_formula_sum 'C14 H10'
_cell_formula_units_Z 4
_cell_length_a        18.0024271502
_cell_length_b         6.0790975346
_cell_length_c         9.9185558641
_cell_angle_alpha        90.0038
_cell_angle_beta        65.8007
_cell_angle_gamma        89.9995
_cell_volume           990.086125
_space_group_crystal_system monoclinic
_space_group_IT_number 14
_space_group_name_H-M_alt 'P2_1/c'
_space_group_name_Hall '-P 2ybc'
loop_
_symmetry_equiv_pos_site_id
_symmetry_equiv_pos_as_xyz
 1 'x,y,z'
 2 '-x,-y,-z'
 3 '-x,-1/2+y,-1/2-z'
 4 'x,-1/2-y,-1/2+z'
loop_
_atom_site_label
_atom_site_type_symbol
_atom_site_fract_x
_atom_site_fract_y
_atom_site_fract_z
H1    H     0.76815529998457 0.12019583073989 0.20369394051640 
H2    H     0.64768752011443 0.03593472968461 0.15922966025222 
H3    H     0.86086686986436 0.18386238978314 0.26332440016079 
H4    H     0.97379162000341 0.28150094077019 0.32900124035850 
H5    H     0.52779554007041 0.28989337952210 0.24818010021223 
H6    H     0.53231646011329 0.63187117979184 0.38166767948026 
H7    H     0.60137068014138 0.87797773000688 0.48349016017745 
H8    H     0.71983151015013 0.97171111994392 0.53659001028817 
H9    H     0.85161620993594 0.88215893987952 0.53143988970285 
H10   H     0.97072441980908 0.63368231943887 0.46235926964475 
C1    C     0.71712788996775 0.23407857064699 0.24432709053171 
C2    C     0.72065871023454 0.42492092946949 0.32288263971149 
C3    C     0.78967132971362 0.47756573027316 0.35762122004161 
C4    C     0.64892506004516 0.18593637008083 0.21808845991566 
C5    C     0.65241109009910 0.57115032001682 0.37133334053937 
C6    C     0.85807376009425 0.33801560030659 0.32102415972568 
C7    C     0.78806523973400 0.67694827018858 0.43538615021528 
C8    C     0.58150825977823 0.32869841929784 0.26804526030510 
C9    C     0.58389438985365 0.51931260073313 0.34220306978878 
C10   C     0.92190418989398 0.39224789078303 0.35885719028684 
C11   C     0.65373311992122 0.76824998064417 0.44902180981460 
C12   C     0.71915682009745 0.82025362970840 0.47861855006908 
C13   C     0.85408884001381 0.72962041941499 0.47202072042586 
C14   C     0.92012154991827 0.58983080982280 0.43441118054113 
