data_stdin
_audit_creation_method 'critic2'
_audit_creation_date 2023-8-11
_chemical_formula_sum 'C14 H10'
_cell_formula_units_Z 4
_cell_length_a        19.6322608897
_cell_length_b         6.1106183300
_cell_length_c         8.0138046888
_cell_angle_alpha        89.9999
_cell_angle_beta        93.5541
_cell_angle_gamma        89.9998
_cell_volume           959.529078
_space_group_crystal_system monoclinic
_space_group_IT_number 5
_space_group_name_H-M_alt 'C2'
_space_group_name_Hall 'C 2y'
loop_
_symmetry_equiv_pos_site_id
_symmetry_equiv_pos_as_xyz
 1 'x,y,z'
 2 '-1/2-x,-1/2+y,-z'
 3 '-1/2+x,-1/2+y,z'
 4 '-x,y,-z'
loop_
_atom_site_label
_atom_site_type_symbol
_atom_site_fract_x
_atom_site_fract_y
_atom_site_fract_z
H1    H     0.27892115003789 0.40621816073261 0.58960620040670 
H2    H     0.40322942011415 0.42796719025962 0.61039540041246 
H3    H     0.17684459017923 0.39266772002366 0.58030698949640 
H4    H     0.05325690005022 0.37956137962060 0.58503739052063 
H5    H     0.46235710015471 0.74413654060152 0.75654043988782 
H6    H     0.39340123025155 0.04506788061305 0.86991814013787 
H7    H     0.28410635016080 0.21101282979681 0.91746060937775 
H8    H     0.15867174005828 0.18971844987118 0.91237788956480 
H9    H     0.05300507000078 0.99498098954307 0.84820497007079 
H10   H     0.98909877010072 0.67830505051206 0.71985212048825 
C1    C     0.30304417983384 0.54722036059083 0.65102206007621 
C2    C     0.26256209996144 0.71383857933528 0.71679447984678 
C3    C     0.18850687991748 0.70279280951075 0.71202475997192 
C4    C     0.37368412983434 0.55828510922143 0.66405648982189 
C5    C     0.29645930975740 0.89822023927471 0.79391239968389 
C6    C     0.15086905977270 0.52625468994580 0.63936703990570 
C7    C     0.15173902023584 0.87562727927514 0.78615736045138 
C8    C     0.40683172996068 0.73721398971152 0.74457917972369 
C9    C     0.36862753997230 0.90532481974311 0.80701972040062 
C10   C     0.08046674999185 0.51819597012944 0.64247853975902 
C11   C     0.25727990979589 0.07069799047503 0.86147695032114 
C12   C     0.18785525983571 0.05916666026058 0.85836455040242 
C13   C     0.07985029003692 0.86290395038479 0.78861581027488 
C14   C     0.04443981984653 0.68661702986846 0.71818031005099 
