data_stdin
_audit_creation_method 'critic2'
_audit_creation_date 2023-8-11
_chemical_formula_sum 'C14 H10'
_cell_formula_units_Z 2
_cell_length_a        10.2717232068
_cell_length_b         5.1217514601
_cell_length_c         9.8204879566
_cell_angle_alpha        89.9997
_cell_angle_beta        67.2628
_cell_angle_gamma        89.9998
_cell_volume           476.497992
_space_group_crystal_system monoclinic
_space_group_IT_number 4
_space_group_name_H-M_alt 'P2_1'
_space_group_name_Hall 'P 2yb'
loop_
_symmetry_equiv_pos_site_id
_symmetry_equiv_pos_as_xyz
 1 'x,y,z'
 2 '-x,-1/2+y,-z'
loop_
_atom_site_label
_atom_site_type_symbol
_atom_site_fract_x
_atom_site_fract_y
_atom_site_fract_z
H1    H     0.92699435985985 0.01514403018879 0.32638065051940 
H2    H     0.93385315064155 0.87266021004863 0.56066682953710 
H3    H     0.92937394962091 0.10462111974799 0.12455802008074 
H4    H     0.90950910976115 0.22551171061856 0.89373290966705 
H5    H     0.78805011037644 0.49437669050179 0.69771074954159 
H6    H     0.63442516959779 0.26162933917664 0.59369583999146 
H7    H     0.53736999004737 0.21388427948094 0.40696606011226 
H8    H     0.51769576025946 0.35701056070699 0.17651138981243 
H9    H     0.58808969002714 0.64148435953578 0.96328594047944 
H10   H     0.73713567042868 0.00129140045164 0.81073930984386 
C1    C     0.86390558983551 0.84732677061254 0.38208502026515 
C2    C     0.77799139064498 0.71902522072004 0.31991795951182 
C3    C     0.77049234041637 0.79748408030206 0.18087732978678 
C4    C     0.86701267976301 0.76836323928364 0.51573394954164 
C5    C     0.69354223021845 0.50501523978298 0.39970425024607 
C6    C     0.85468009036326 0.99886548906237 0.09117123981495 
C7    C     0.67351916985351 0.66662332084369 0.13183705050431 
C8    C     0.78474350970032 0.55541902913859 0.59285991049695 
C9    C     0.69962374020132 0.42570138056949 0.53517603974952 
C10   C     0.84337566050551 0.06961380083744 0.96012886993823 
C11   C     0.60029357980135 0.37654863931812 0.34446008979062 
C12   C     0.58926833935337 0.45658905086125 0.21708096045456 
C13   C     0.66288963984674 0.74427220037533 0.99830228988213 
C14   C     0.74615935042960 0.94328322940993 0.91344478998176 
