data_stdin
_audit_creation_method 'critic2'
_audit_creation_date 2023-8-11
_chemical_formula_sum 'C14 H10'
_cell_formula_units_Z 8
_cell_length_a        21.3635617201
_cell_length_b        11.4535578502
_cell_length_c         7.9436926402
_cell_angle_alpha        90.0005
_cell_angle_beta        90.0001
_cell_angle_gamma        90.0005
_cell_volume          1943.732540
_space_group_crystal_system orthorhombic
_space_group_IT_number 60
_space_group_name_H-M_alt 'Pbcn'
_space_group_name_Hall '-P 2n 2ab'
loop_
_symmetry_equiv_pos_site_id
_symmetry_equiv_pos_as_xyz
 1 'x,y,z'
 2 '-x,-y,-z'
 3 '-1/2-x,-1/2-y,-1/2+z'
 4 '-1/2+x,-1/2+y,-1/2-z'
 5 '-1/2+x,-1/2-y,-z'
 6 '-1/2-x,-1/2+y,z'
 7 '-x,y,-1/2-z'
 8 'x,-y,-1/2+z'
loop_
_atom_site_label
_atom_site_type_symbol
_atom_site_fract_x
_atom_site_fract_y
_atom_site_fract_z
H1    H     0.23717784023380 0.32525751965065 0.61820031036670 
H2    H     0.34569679021047 0.26146156013349 0.59743254015110 
H3    H     0.14860758981756 0.37929442022911 0.61248642983844 
H4    H     0.03786782987146 0.43370794039473 0.62728327040549 
H5    H     0.37238476995686 0.07248093977306 0.45468744971633 
H6    H     0.28754917006716 0.94874671031788 0.33797280022786 
H7    H     0.17731345001024 0.90940062991154 0.29174774042343 
H8    H     0.06643644992691 0.96536865977901 0.31666095030785 
H9    H     0.98581575977971 0.10425531959240 0.40822374000854 
H10   H     0.95524557005491 0.29425687000162 0.53039729003136 
C1    C     0.24719806008430 0.24321058975149 0.55504115034890 
C2    C     0.19789991996644 0.17492983996024 0.48869015940655 
C3    C     0.13261774009661 0.20994054034960 0.49861010036925 
C4    C     0.30893835020121 0.20694417011085 0.54399003014823 
C5    C     0.21319661021308 0.06587540005943 0.41166017048049 
C6    C     0.11363885004503 0.31844508974936 0.56619507973801 
C7    C     0.08531770001942 0.13231184016350 0.43807744021562 
C8    C     0.32384331004435 0.10067824964195 0.46458668009498 
C9    C     0.27662143017384 0.03132956978507 0.39950841947480 
C10   C     0.05103853017847 0.34917931960521 0.57512193971107 
C11   C     0.16436457994735 0.99205938985084 0.34938788000631 
C12   C     0.10299633989764 0.02337815974140 0.36328261946038 
C13   C     0.02160675022349 0.16468156989711 0.45220243032294 
C14   C     0.00449905995523 0.27127683021867 0.51947807961738 
