data_stdin
_audit_creation_method 'critic2'
_audit_creation_date 2023-8-11
_chemical_formula_sum 'C14 H10'
_cell_formula_units_Z 4
_cell_length_a         7.5653412249
_cell_length_b        10.2527480589
_cell_length_c        13.4703651018
_cell_angle_alpha        90.0007
_cell_angle_beta        65.6429
_cell_angle_gamma        89.9992
_cell_volume           951.837955
_space_group_crystal_system monoclinic
_space_group_IT_number 14
_space_group_name_H-M_alt 'P2_1/c'
_space_group_name_Hall '-P 2ybc'
loop_
_symmetry_equiv_pos_site_id
_symmetry_equiv_pos_as_xyz
 1 'x,y,z'
 2 '-x,-y,-z'
 3 '-x,-1/2+y,-1/2-z'
 4 'x,-1/2-y,-1/2+z'
loop_
_atom_site_label
_atom_site_type_symbol
_atom_site_fract_x
_atom_site_fract_y
_atom_site_fract_z
H1    H     0.85978890028132 0.70006542048264 0.50249896993919 
H2    H     0.90169272022377 0.93056788956284 0.45055401976729 
H3    H     0.81020896949525 0.51289369011804 0.54600646972295 
H4    H     0.76178213976453 0.28124705048727 0.58970631998888 
H5    H     0.84505887955852 0.00843538953715 0.29074887994331 
H6    H     0.74547328033818 0.85047943997354 0.18384867997631 
H7    H     0.67159945965663 0.62922403965710 0.14767560040611 
H8    H     0.62467304080144 0.39614869047089 0.19647890961395 
H9    H     0.63057030957153 0.21541119025300 0.31175884010255 
H10   H     0.66973257966235 0.12925014958797 0.47379559014923 
C1    C     0.83237320969364 0.73136542990324 0.43307247979232 
C2    C     0.77605508967128 0.63897011010625 0.37380184974281 
C3    C     0.74765037070419 0.50174254983619 0.40280826958936 
C4    C     0.85608912056771 0.86183589047488 0.40403413984554 
C5    C     0.74632765057511 0.68388215999208 0.28149877957645 
C6    C     0.77059892978039 0.44951604016236 0.49378015968376 
C7    C     0.69408723948613 0.41466520975524 0.33712308996000 
C8    C     0.82388309940129 0.90602714043383 0.31399374016987 
C9    C     0.77032000973794 0.81774852958956 0.25392162000216 
C10   C     0.74308143031958 0.31805922986790 0.51889081024735 
C11   C     0.69213116030795 0.59305446002918 0.21824363987566 
C12   C     0.66721087947904 0.46400173956595 0.24492596010362 
C13   C     0.66915814944630 0.28055205035193 0.36362302012887 
C14   C     0.69250332978110 0.23240194952204 0.45329916966479 
