data_stdin
_audit_creation_method 'critic2'
_audit_creation_date 2023-8-11
_chemical_formula_sum 'C14 H10'
_cell_formula_units_Z 4
_cell_length_a         8.6310460653
_cell_length_b         5.7308390714
_cell_length_c        20.2760880900
_cell_angle_alpha        90.0012
_cell_angle_beta        89.9979
_cell_angle_gamma        89.9997
_cell_volume          1002.918902
_space_group_crystal_system orthorhombic
_space_group_IT_number 29
_space_group_name_H-M_alt 'Pca2_1'
_space_group_name_Hall 'P 2c -2ac'
loop_
_symmetry_equiv_pos_site_id
_symmetry_equiv_pos_as_xyz
 1 'x,y,z'
 2 '-x,-y,-1/2+z'
 3 '-1/2-x,y,-1/2+z'
 4 '-1/2+x,-y,z'
loop_
_atom_site_label
_atom_site_type_symbol
_atom_site_fract_x
_atom_site_fract_y
_atom_site_fract_z
H1    H     0.50014706967663 0.15737850929008 0.00755850988746 
H2    H     0.48978664986167 0.13519435973271 0.12733442008343 
H3    H     0.50117047029401 0.15730245008611 0.90926383001108 
H4    H     0.49337844961842 0.13505417001639 0.78945960024258 
H5    H     0.61071163012481 0.79969485940687 0.18736793995752 
H6    H     0.74618032954078 0.48873679930014 0.12361652014723 
H7    H     0.83375696947918 0.32586736961274 0.01996740982653 
H8    H     0.83501962947174 0.32579673022244 0.89818996002937 
H9    H     0.74973647950694 0.48865493041884 0.79419132022755 
H10   H     0.61559202966208 0.79956643033989 0.72989972978915 
C1    C     0.55494909950360 0.01024295981735 0.03199385001844 
C2    C     0.62864605995652 0.83455167929339 0.99448514019352 
C3    C     0.62940655991897 0.83451685972071 0.92284938002192 
C4    C     0.54885882979798 0.99779397076431 0.10014952020447 
C5    C     0.70004769005785 0.64529281006433 0.02885359006832 
C6    C     0.55649904977383 0.01016527021808 0.88504682977699 
C7    C     0.70152652035240 0.64522432918483 0.88876670980829 
C8    C     0.61670110027514 0.80879399061718 0.13379794978771 
C9    C     0.69208580993374 0.63606775974607 0.09851544017631 
C10   C     0.55186139985590 0.99765763052494 0.81687369023236 
C11   C     0.77737913044993 0.46543437986242 0.99261024004092 
C12   C     0.77808073952229 0.46539439933529 0.92532191004149 
C13   C     0.69507019019505 0.63596991913556 0.81907485987492 
C14   C     0.62043208978927 0.80866351982981 0.78349241995566 
