data_stdin
_audit_creation_method 'critic2'
_audit_creation_date 2023-8-11
_chemical_formula_sum 'C14 H10'
_cell_formula_units_Z 4
_cell_length_a         9.8513296336
_cell_length_b         8.4719142300
_cell_length_c        11.5963693505
_cell_angle_alpha        90.0000
_cell_angle_beta       104.2874
_cell_angle_gamma        90.0000
_cell_volume           937.893576
_space_group_crystal_system monoclinic
_space_group_IT_number 14
_space_group_name_H-M_alt 'P2_1/c'
_space_group_name_Hall '-P 2ybc'
loop_
_symmetry_equiv_pos_site_id
_symmetry_equiv_pos_as_xyz
 1 'x,y,z'
 2 '-x,-y,-z'
 3 '-x,-1/2+y,-1/2-z'
 4 'x,-1/2-y,-1/2+z'
loop_
_atom_site_label
_atom_site_type_symbol
_atom_site_fract_x
_atom_site_fract_y
_atom_site_fract_z
H1    H     0.06538376958472 0.36160807031857 0.08269390993468 
H2    H     0.32001253943553 0.34918135037353 0.13413250961879 
H3    H     0.85752092955314 0.36693084057691 0.03685866001977 
H4    H     0.60289813009393 0.38238745023533 0.96736727977193 
H5    H     0.44563179039947 0.16301362036140 0.02844615039819 
H6    H     0.30796990023811 0.99388610956323 0.86558096964570 
H7    H     0.08570523007203 0.90256983978418 0.74345205033472 
H8    H     0.82787109962277 0.91458245053530 0.68242485975199 
H9    H     0.60762381009095 0.03391020971085 0.69791613025598 
H10   H     0.47471476022959 0.21863521983481 0.79639133985998 
C1    C     0.11636878045252 0.28134288991310 0.03346770025626 
C2    C     0.03552477987142 0.18664464050078 0.94154103036408 
C3    C     0.88356044992806 0.19373905026136 0.90592568982402 
C4    C     0.26120275038294 0.27384610006926 0.06323050994381 
C5    C     0.10730857952820 0.08242472963067 0.87999930959532 
C6    C     0.80490453966789 0.29443738044193 0.96178433991483 
C7    C     0.80984255005803 0.09760905038583 0.80946244007150 
C8    C     0.33176117956015 0.17007252980050 0.00313523982363 
C9    C     0.25536812982808 0.07604638946530 0.91257007002971 
C10   C     0.66051035981870 0.30310875052926 0.92267407033358 
C11   C     0.02879370018890 0.98441081054561 0.78666110970678 
C12   C     0.88612105027703 0.99141023956309 0.75281849989731 
C13   C     0.66227458982385 0.10861907954308 0.77132618966994 
C14   C     0.58824086963551 0.21065796994900 0.82616974993272 
