data_stdin
_audit_creation_method 'critic2'
_audit_creation_date 2023-8-11
_chemical_formula_sum 'C14 H10'
_cell_formula_units_Z 8
_cell_length_a        13.8542908668
_cell_length_b         9.6467235003
_cell_length_c        15.1353485473
_cell_angle_alpha        90.0005
_cell_angle_beta        71.0690
_cell_angle_gamma        90.0000
_cell_volume          1913.402539
_space_group_crystal_system monoclinic
_space_group_IT_number 15
_space_group_name_H-M_alt 'C2/c'
_space_group_name_Hall '-C 2yc'
loop_
_symmetry_equiv_pos_site_id
_symmetry_equiv_pos_as_xyz
 1 'x,y,z'
 2 '-x,-y,-z'
 3 '-1/2-x,-1/2+y,-1/2-z'
 4 'x,-y,-1/2+z'
 5 '-1/2+x,-1/2+y,z'
 6 '-1/2-x,-1/2-y,-z'
 7 '-x,y,-1/2-z'
 8 '-1/2+x,-1/2-y,-1/2+z'
loop_
_atom_site_label
_atom_site_type_symbol
_atom_site_fract_x
_atom_site_fract_y
_atom_site_fract_z
H1    H     0.00920125987835 0.64266619005130 0.54757482017908 
H2    H     0.96321258022517 0.47222532040371 0.67401373029065 
H3    H     0.04853984968288 0.76951281021611 0.43824318018402 
H4    H     0.10338606010748 0.92886834020046 0.30453100994462 
H5    H     0.09400586968727 0.30712665008232 0.69407773987427 
H6    H     0.27128682005940 0.31928879005733 0.58708392026654 
H7    H     0.40140970002781 0.42429137956841 0.45545097019786 
H8    H     0.45291915011372 0.59276870955901 0.32589094979743 
H9    H     0.40980722996477 0.77281438995073 0.23166776023001 
H10   H     0.28339021007048 0.93133048024651 0.20000793013449 
C1    C     0.06755681032132 0.57245576980818 0.55476595984977 
C2    C     0.16780740011943 0.57966613049436 0.49094283024803 
C3    C     0.19746388970044 0.67644308040426 0.41323489024003 
C4    C     0.04125073977276 0.47625793037812 0.62647374968232 
C5    C     0.24233244020412 0.48678236955848 0.50404230996806 
C6    C     0.12783264024888 0.76893703051694 0.39368316967696 
C7    C     0.30099796006609 0.67863328995863 0.35299687005636 
C8    C     0.11445957003501 0.38300665980651 0.63776534982895 
C9    C     0.21371428975100 0.38947725039863 0.57785067032839 
C10   C     0.15832597037424 0.85845721994925 0.31822352973546 
C11   C     0.34554250986949 0.49442586034784 0.44298246976310 
C12   C     0.37373106029613 0.58709702007311 0.37108667983713 
C13   C     0.33028651027155 0.77123597047748 0.27640887005047 
C14   C     0.26030422955466 0.85983556045695 0.25880782027247 
