data_stdin
_audit_creation_method 'critic2'
_audit_creation_date 2023-8-11
_chemical_formula_sum 'C14 H10'
_cell_formula_units_Z 8
_cell_length_a        38.2234748300
_cell_length_b         5.9840855516
_cell_length_c         8.3593773680
_cell_angle_alpha        89.9987
_cell_angle_beta        87.0737
_cell_angle_gamma        89.9976
_cell_volume          1909.568326
_space_group_crystal_system monoclinic
_space_group_IT_number 15
_space_group_name_H-M_alt 'C2/c'
_space_group_name_Hall '-C 2yc'
loop_
_symmetry_equiv_pos_site_id
_symmetry_equiv_pos_as_xyz
 1 'x,y,z'
 2 '-x,-y,-z'
 3 '-x,y,-1/2-z'
 4 'x,-y,-1/2+z'
 5 '-1/2+x,-1/2+y,z'
 6 '-1/2-x,-1/2-y,-z'
 7 '-1/2-x,-1/2+y,-1/2-z'
 8 '-1/2+x,-1/2-y,-1/2+z'
loop_
_atom_site_label
_atom_site_type_symbol
_atom_site_fract_x
_atom_site_fract_y
_atom_site_fract_z
H1    H     0.14350948003853 0.85407703978223 0.77059483000327 
H2    H     0.20594117987346 0.86056842059217 0.81464322967421 
H3    H     0.09217538987152 0.86203443994235 0.73751044038390 
H4    H     0.02949290998150 0.88984408949614 0.70203093946495 
H5    H     0.24369550002389 0.17374184961319 0.70925166038991 
H6    H     0.21679361990038 0.48684323064628 0.56185866016797 
H7    H     0.16614051996201 0.66393793979904 0.45214493004414 
H8    H     0.10263438000449 0.67524624947326 0.41405377009335 
H9    H     0.04463609987708 0.51728641080970 0.45403732009916 
H10   H     0.00456791003551 0.21740625014594 0.56186398941502 
C1    C     0.15905471003821 0.99347224982543 0.72339121958173 
C2    C     0.14302894995352 0.16836640014374 0.64044025988722 
C3    C     0.10562600995523 0.17474292958143 0.61710002024575 
C4    C     0.19462304993010 0.99600508047055 0.74762739038932 
C5    C     0.16454273993473 0.34885234951345 0.58164324992367 
C6    C     0.08233199004805 0.00631981966166 0.67494803017555 
C7    C     0.09137366006418 0.36177641931442 0.53640404041186 
C8    C     0.21576552009541 0.17364986059583 0.68941840969259 
C9    C     0.20083902006084 0.34750530926500 0.60759289045550 
C10   C     0.04667387001057 0.02212185938744 0.65515920951082 
C11   C     0.14922170008059 0.52955922969862 0.49772069973836 
C12   C     0.11409205990742 0.53592180012174 0.47651372002367 
C13   C     0.05484231992619 0.37366844964487 0.51703535058291 
C14   C     0.03268541988412 0.20694724029791 0.57601153022527 
