data_stdin
_audit_creation_method 'critic2'
_audit_creation_date 2023-8-11
_chemical_formula_sum 'C14 H10'
_cell_formula_units_Z 4
_cell_length_a        10.9893695514
_cell_length_b         6.1841442704
_cell_length_c        14.1060322594
_cell_angle_alpha        90.0007
_cell_angle_beta        77.3896
_cell_angle_gamma        90.0004
_cell_volume           935.518659
_space_group_crystal_system monoclinic
_space_group_IT_number 14
_space_group_name_H-M_alt 'P2_1/c'
_space_group_name_Hall '-P 2ybc'
loop_
_symmetry_equiv_pos_site_id
_symmetry_equiv_pos_as_xyz
 1 'x,y,z'
 2 '-x,-y,-z'
 3 '-x,-1/2+y,-1/2-z'
 4 'x,-1/2-y,-1/2+z'
loop_
_atom_site_label
_atom_site_type_symbol
_atom_site_fract_x
_atom_site_fract_y
_atom_site_fract_z
H1    H     0.79728406034383 0.34692477057683 0.38927091017620 
H2    H     0.66914957996439 0.34002456043982 0.26836491011653 
H3    H     0.89712358042696 0.34759767013932 0.49296794986491 
H4    H     0.01955039008259 0.33266921027830 0.61825410998514 
H5    H     0.52079330043644 0.03364466960611 0.26453182975333 
H6    H     0.51475921987528 0.72535032049621 0.37773016024776 
H7    H     0.58919742965753 0.54386087004558 0.50670875972079 
H8    H     0.71052119970980 0.54665738008905 0.63492852999456 
H9    H     0.84978349965365 0.72361049069458 0.72014951981054 
H10   H     0.99725960970825 0.02269330048716 0.73362486035557 
C1    C     0.73572060016462 0.20979023958544 0.38826066028494 
C2    C     0.73079741010795 0.04046145055742 0.45633612972107 
C3    C     0.80286910034737 0.04126001021440 0.53135992004104 
C4    C     0.66238549978376 0.20695841961198 0.31986176989639 
C5    C     0.65120816051896 0.86068727001018 0.45006668966265 
C6    C     0.88554472007170 0.21007424940950 0.54205419996725 
C7    C     0.79210010997554 0.86232780984652 0.59674776976677 
C8    C     0.58062386023306 0.03330197056660 0.31666379020869 
C9    C     0.57675764004713 0.86178499061473 0.38002659987937 
C10   C     0.95430891950214 0.20281248045131 0.61331131034084 
C11   C     0.64697472987341 0.68224645063056 0.51517660004496 
C12   C     0.71404176000013 0.68319832990529 0.58578190021530 
C13   C     0.86156693976155 0.86037363920383 0.67020629975217 
C14   C     0.94223107014344 0.02743682053017 0.67823230988245 
