data_stdin
_audit_creation_method 'critic2'
_audit_creation_date 2023-8-11
_chemical_formula_sum 'C14 H10'
_cell_formula_units_Z 4
_cell_length_a         5.2661089425
_cell_length_b         6.4641702201
_cell_length_c        31.8463650799
_cell_angle_alpha        90.0002
_cell_angle_beta        61.3119
_cell_angle_gamma        90.0005
_cell_volume           951.006825
_space_group_crystal_system monoclinic
_space_group_IT_number 14
_space_group_name_H-M_alt 'P2_1/c'
_space_group_name_Hall '-P 2ybc'
loop_
_symmetry_equiv_pos_site_id
_symmetry_equiv_pos_as_xyz
 1 'x,y,z'
 2 '-x,-y,-z'
 3 '-x,-1/2+y,-1/2-z'
 4 'x,-1/2-y,-1/2+z'
loop_
_atom_site_label
_atom_site_type_symbol
_atom_site_fract_x
_atom_site_fract_y
_atom_site_fract_z
H1    H     0.13763654015326 0.07560770980155 0.81682249995906 
H2    H     0.64617505066897 0.06298692025686 0.75632069002083 
H3    H     0.72995455957736 0.08591109007424 0.87001483986197 
H4    H     0.22391332040805 0.08077925028934 0.93338717994980 
H5    H     0.95739658974656 0.76374719940236 0.75323437992057 
H6    H     0.73741487976698 0.46951463074131 0.80929215007119 
H7    H     0.32163247019700 0.29793999042446 0.87236103006139 
H8    H     0.80707928005443 0.30081306966167 0.93508771002198 
H9    H     0.34379940899763 0.47532458056787 0.97703369011403 
H10   H     0.02566011004540 0.77690910063459 0.98732056012073 
C1    C     0.26531782941027 0.94187950019473 0.81590667990083 
C2    C     0.13574050026626 0.77888644941884 0.84900846014443 
C3    C     0.83528521941978 0.78240236976014 0.88627999991695 
C4    C     0.55518773872366 0.93599267075549 0.78172096014456 
C5    C     0.31036618875279 0.60349087024174 0.84528589014035 
C6    C     0.64919375094045 0.95144281016185 0.89324265994901 
C7    C     0.72030895985241 0.60802650037087 0.91738584997127 
C8    C     0.72847237965104 0.76617207998520 0.77941641992795 
C9    C     0.60627811056670 0.60227479995561 0.81061859005455 
C10   C     0.36368544004870 0.94950191051140 0.92910415000937 
C11   C     0.18460170968086 0.43125572994433 0.87678616988691 
C12   C     0.90122665045348 0.43275742951021 0.91125960010336 
C13   C     0.42793058074450 0.60984699980074 0.95375370998977 
C14   C     0.25144696974984 0.77781259958614 0.95967255992486 
