data_stdin
_audit_creation_method 'critic2'
_audit_creation_date 2023-8-11
_chemical_formula_sum 'C14 H10'
_cell_formula_units_Z 4
_cell_length_a         5.7689150671
_cell_length_b         5.7690794062
_cell_length_c        28.1441473973
_cell_angle_alpha        90.0014
_cell_angle_beta        90.0019
_cell_angle_gamma        89.9981
_cell_volume           936.674631
_space_group_crystal_system tetragonal
_space_group_IT_number 76
_space_group_name_H-M_alt 'P4_1'
_space_group_name_Hall 'P 4w'
loop_
_symmetry_equiv_pos_site_id
_symmetry_equiv_pos_as_xyz
 1 'x,y,z'
 2 '-y,x,-3/4+z'
 3 '-x,-y,-1/2+z'
 4 'y,-x,-1/4+z'
loop_
_atom_site_label
_atom_site_type_symbol
_atom_site_fract_x
_atom_site_fract_y
_atom_site_fract_z
H1    H     0.21943136996478 0.82818499072993 0.99186643000905 
H2    H     0.91621091936665 0.79716869967432 0.93201416013958 
H3    H     0.43321846085106 0.83662420037754 0.04854597010287 
H4    H     0.70569892991142 0.87175656077115 0.11517524014510 
H5    H     0.59193638062912 0.08817944035533 0.92936997015766 
H6    H     0.59455905987646 0.42001547928056 0.98531842993699 
H7    H     0.77718001990260 0.64054523959484 0.04805325991454 
H8    H     0.07718257988939 0.68173593027666 0.10986570986247 
H9    H     0.39941652016150 0.52294850997895 0.15493689989543 
H10   H     0.69206740017049 0.21148512055709 0.16902971998035 
C1    C     0.08385176076565 0.95903186987967 0.99117181993918 
C2    C     0.08455819068707 0.14130047023782 0.02477802004356 
C3    C     0.25363632990950 0.15888098005952 0.06291698006619 
C4    C     0.91092841999022 0.94079897952546 0.95714540999213 
C5    C     0.90735254016338 0.31352694064273 0.02117928997301 
C6    C     0.42407062919934 0.98801717921315 0.07146338004712 
C7    C     0.24613342965992 0.35437338998710 0.09406900014461 
C8    C     0.73072244070534 0.10517068936497 0.95534353985090 
C9    C     0.73184089030480 0.29032836985634 0.98651346999889 
C10   C     0.57786828070392 0.00694540990725 0.10902308014138 
C11   C     0.90910345994218 0.50780539016135 0.05267186015169 
C12   C     0.07381982055145 0.52946836960022 0.08706185013295 
C13   C     0.40697422029062 0.37129544052333 0.13188324984715 
C14   C     0.57003009006171 0.19973614957596 0.13960245995375 
