data_stdin
_audit_creation_method 'critic2'
_audit_creation_date 2023-8-11
_chemical_formula_sum 'C14 H10'
_cell_formula_units_Z 4
_cell_length_a         5.2468886243
_cell_length_b         6.4641971907
_cell_length_c        28.4299064341
_cell_angle_alpha        89.9993
_cell_angle_beta        80.3096
_cell_angle_gamma        89.9999
_cell_volume           950.496758
_space_group_crystal_system monoclinic
_space_group_IT_number 14
_space_group_name_H-M_alt 'P2_1/c'
_space_group_name_Hall '-P 2ybc'
loop_
_symmetry_equiv_pos_site_id
_symmetry_equiv_pos_as_xyz
 1 'x,y,z'
 2 '-x,-y,-z'
 3 '-x,-1/2+y,-1/2-z'
 4 'x,-1/2-y,-1/2+z'
loop_
_atom_site_label
_atom_site_type_symbol
_atom_site_fract_x
_atom_site_fract_y
_atom_site_fract_z
H1    H     0.77008508084919 0.07460492073492 0.31687173988151 
H2    H     0.15789269041912 0.06088664020408 0.25625391016250 
H3    H     0.46903514077648 0.08599200057182 0.37018281000647 
H4    H     0.08898163033070 0.08159035029911 0.43355609987046 
H5    H     0.46415942079754 0.76169691067573 0.25322221984877 
H6    H     0.35667892006151 0.46833421926993 0.30939598996714 
H7    H     0.06596020003243 0.29717043058771 0.37238350990002 
H8    H     0.67634546950441 0.30095884029520 0.43513839014595 
H9    H     0.29669298042591 0.47622018066429 0.47714752988596 
H10   H     0.99877165972835 0.77841286947012 0.48751776009820 
C1    C     0.89645045026057 0.94092829990188 0.31598737010254 
C2    C     0.83326333979026 0.77838836965401 0.34912409010282 
C3    C     0.60695801048580 0.78235695928484 0.38639301993561 
C4    C     0.11815026076352 0.93446682994147 0.28174532992896 
C5    C     0.00085821057751 0.60284047946667 0.34539478008709 
C6    C     0.43459243989961 0.95165898964065 0.39338038984785 
C7    C     0.55403121029663 0.60820285039025 0.41747639009470 
C8    C     0.28742490093195 0.76463683960032 0.27945790987417 
C9    C     0.22782523967716 0.60115386927822 0.31070223014152 
C10   C     0.22054224907902 0.95022783050132 0.42926046999943 
C11   C     0.93772439976712 0.43075362013137 0.37683692012858 
C12   C     0.72293718064430 0.43271291925847 0.41132098006975 
C13   C     0.33418959967446 0.61058866987509 0.45388385012543 
C14   C     0.16936058957619 0.77881719991845 0.45982173009017 
