data_stdin
_audit_creation_method 'critic2'
_audit_creation_date 2023-8-11
_chemical_formula_sum 'C14 H10'
_cell_formula_units_Z 8
_cell_length_a        38.2840625947
_cell_length_b         6.0232757941
_cell_length_c         8.2886585072
_cell_angle_alpha        90.0012
_cell_angle_beta        89.9768
_cell_angle_gamma        89.9963
_cell_volume          1911.326923
_space_group_crystal_system monoclinic
_space_group_IT_number 13
_space_group_name_H-M_alt 'P2/c'
_space_group_name_Hall '-P 2yc'
loop_
_symmetry_equiv_pos_site_id
_symmetry_equiv_pos_as_xyz
 1 'x,y,z'
 2 '-x,-y,-z'
 3 '-x,y,-1/2-z'
 4 'x,-y,-1/2+z'
loop_
_atom_site_label
_atom_site_type_symbol
_atom_site_fract_x
_atom_site_fract_y
_atom_site_fract_z
H1    H     0.40692999001974 0.64138897961021 0.74705862994418 
H2    H     0.90694788993221 0.85863347022850 0.25318755959333 
H3    H     0.46973175994589 0.61809487034545 0.78961023970140 
H4    H     0.96975019994483 0.88206089016416 0.21045926040426 
H5    H     0.35548414987396 0.64296440959547 0.70409475972055 
H6    H     0.85549468006973 0.85689776054740 0.29618287975618 
H7    H     0.29327056003010 0.62481269033688 0.64432908055199 
H8    H     0.79327259997214 0.87484143956170 0.35603237023920 
H9    H     0.49602355992955 0.29339587042096 0.93241753007122 
H10   H     0.99602278988813 0.20681026959504 0.06754972957164 
H11   H     0.45720187999870 0.99171266981227 0.03526307044575 
H12   H     0.95718314990824 0.50836902081677 0.96479275021204 
H13   H     0.39988531994184 0.83006519007638 0.06843058041701 
H14   H     0.89986411988891 0.66992836985730 0.93182431013282 
H15   H     0.33630351009022 0.83550260951052 0.02069123940648 
H16   H     0.83627495001264 0.66437474939143 0.97969669041003 
H17   H     0.28508807012380 0.00521567071503 0.90247240960493 
H18   H     0.78506009012756 0.49448930934743 0.09800145986103 
H19   H     0.25698401004408 0.30745402061379 0.74371927059554 
H20   H     0.75696796011920 0.19211705035802 0.25675523983319 
C1    C     0.41737726990596 0.49830242039619 0.81059366953619 
C2    C     0.91738653988136 0.00172931983232 0.18960564964322 
C3    C     0.39477997991551 0.32851287938659 0.86503527008688 
C4    C     0.89477776987199 0.17145919047118 0.13520483972458 
C5    C     0.35735743009800 0.33103883972142 0.83566869959114 
C6    C     0.85735410993485 0.16885324067277 0.16464982972882 
C7    C     0.45310486008751 0.48528622984979 0.83479268986187 
C8    C     0.95311428004828 0.01482658949593 0.16532200967015 
C9    C     0.40981010988078 0.14333487016738 0.94754468964582 
C10   C     0.90979864991322 0.35666370983188 0.05265117029904 
C11   C     0.34057323004142 0.50225256931207 0.74869608016425 
C12   C     0.84057548993822 0.99758629019201 0.25163681020282 
C13   C     0.33663600995048 0.14919844079269 0.89138252025385 
C14   C     0.83662141992056 0.35065492033252 0.10898198054037 
C15   C     0.46786006012217 0.30194724035884 0.91514843979275 
C16   C     0.96785954007961 0.19817919020449 0.08489982049491 
C17   C     0.44639085009863 0.13422017970105 0.97131744975324 
C18   C     0.94638070988599 0.36584970029918 0.02878271994751 
C19   C     0.30511609993049 0.49343261049050 0.71592659018205 
C20   C     0.80511479001966 0.00629373938632 0.28446713027270 
C21   C     0.38783924993980 0.96788034063764 0.00442873994263 
C22   C     0.88782089997164 0.53210194024994 0.99586094019616 
C23   C     0.35268965988707 0.97098761029734 0.97801305982181 
C24   C     0.85266690008150 0.52890799961298 0.02232329024255 
C25   C     0.30039393999297 0.14523995922769 0.85831026013359 
C26   C     0.80037583998344 0.35451246956117 0.14213167029727 
C27   C     0.28479089990399 0.31387088931347 0.77079192052261 
C28   C     0.78477952001950 0.18582354023935 0.22965604964218 
