data_stdin
_audit_creation_method 'critic2'
_audit_creation_date 2023-8-11
_chemical_formula_sum 'C14 H10'
_cell_formula_units_Z 4
_cell_length_a        15.7058898538
_cell_length_b         5.6805432015
_cell_length_c        10.6281932515
_cell_angle_alpha        90.0006
_cell_angle_beta        85.2942
_cell_angle_gamma        90.0012
_cell_volume           945.029608
_space_group_crystal_system monoclinic
_space_group_IT_number 14
_space_group_name_H-M_alt 'P2_1/c'
_space_group_name_Hall '-P 2ybc'
loop_
_symmetry_equiv_pos_site_id
_symmetry_equiv_pos_as_xyz
 1 'x,y,z'
 2 '-x,-y,-z'
 3 '-x,-1/2+y,-1/2-z'
 4 'x,-1/2-y,-1/2+z'
loop_
_atom_site_label
_atom_site_type_symbol
_atom_site_fract_x
_atom_site_fract_y
_atom_site_fract_z
H1    H     0.75924744978783 0.40398897058958 0.84561019959057 
H2    H     0.63062765012958 0.43257311007940 0.73321848027786 
H3    H     0.86100592031316 0.38000465022893 0.94657287994445 
H4    H     0.98412384007298 0.33797149069605 0.07225687999361 
H5    H     0.51421491982152 0.13179664978439 0.76766517958796 
H6    H     0.53195781994804 0.79909398030255 0.91487500026603 
H7    H     0.61393619008087 0.58918752040936 0.06237624030034 
H8    H     0.74054220014545 0.55532520066272 0.18334587960164 
H9    H     0.87605778986698 0.70446843925875 0.24156675981480 
H10   H     0.99330870001668 0.00112939938979 0.22080684010922 
C1    C     0.71023077984116 0.27018583968422 0.86238740970099 
C2    C     0.72155971016008 0.08452988932768 0.94796301044921 
C3    C     0.79624996978052 0.06474028951467 0.01947956970269 
C4    C     0.63708532015644 0.28680471941099 0.79824657993104 
C5    C     0.65576581029776 0.91087740966459 0.96534577030743 
C6    C     0.86345588013290 0.23115568079916 0.01051653999703 
C7    C     0.80189301026104 0.87172202044756 0.10468497967434 
C8    C     0.57206626998422 0.11700457977410 0.81698848980240 
C9    C     0.58189660001015 0.93122616973073 0.89862364984933 
C10   C     0.93280680979966 0.20876346056886 0.08207351995416 
C11   C     0.66462132988267 0.72012084976506 0.05122602989182 
C12   C     0.73474989970046 0.70107432969860 0.11813404045989 
C13   C     0.87346014033005 0.85278457043498 0.17681343969836 
C14   C     0.93809412990359 0.01859436061497 0.16598073041462 
