data_stdin
_audit_creation_method 'critic2'
_audit_creation_date 2023-8-11
_chemical_formula_sum 'C14 H10'
_cell_formula_units_Z 4
_cell_length_a        10.6899759701
_cell_length_b         5.7072931509
_cell_length_c        17.7488620420
_cell_angle_alpha        89.9990
_cell_angle_beta       116.4524
_cell_angle_gamma        89.9999
_cell_volume           969.500947
_space_group_crystal_system monoclinic
_space_group_IT_number 14
_space_group_name_H-M_alt 'P2_1/c'
_space_group_name_Hall '-P 2ybc'
loop_
_symmetry_equiv_pos_site_id
_symmetry_equiv_pos_as_xyz
 1 'x,y,z'
 2 '-x,-y,-z'
 3 '-x,-1/2+y,-1/2-z'
 4 'x,-1/2-y,-1/2+z'
loop_
_atom_site_label
_atom_site_type_symbol
_atom_site_fract_x
_atom_site_fract_y
_atom_site_fract_z
H1    H     0.92974939038321 0.46538942962028 0.26383095029506 
H2    H     0.68060260945454 0.45916456929123 0.17007185971022 
H3    H     0.13328619985930 0.46529931931218 0.34260523981394 
H4    H     0.37867819995496 0.46258908044610 0.44453315971191 
H5    H     0.52981363008094 0.13188239985693 0.17834467974535 
H6    H     0.63700122970349 0.81374145921640 0.28270790012742 
H7    H     0.83830882004325 0.63526791070465 0.39668948983086 
H8    H     0.09011397002958 0.63620933924958 0.49529591010885 
H9    H     0.31845534973339 0.81976326070520 0.55171235982814 
H10   H     0.47473145987495 0.14035008927825 0.55060399998159 
C1    C     0.86753748034970 0.32174795969491 0.26915814986858 
C2    C     0.93135589015406 0.14402027985072 0.32979498010218 
C3    C     0.07943042038873 0.14461967936691 0.38772723990811 
C4    C     0.72553268045966 0.31844285049867 0.21577749026430 
C5    C     0.84548045968649 0.95782525010097 0.33417252014583 
C6    C     0.17128037990043 0.32297796978459 0.38793559991235 
C7    C     0.13495093969874 0.95931178026139 0.44769623013067 
C8    C     0.64129004041318 0.13523133009797 0.22070057017045 
C9    C     0.70095975988646 0.95752258966020 0.27886202978080 
C10   C     0.31094424982891 0.32192486019296 0.44590452014547 
C11   C     0.90631073993267 0.77473897962220 0.39474099023271 
C12   C     0.04503419988461 0.77546000959576 0.44911666005630 
C13   C     0.27794612988075 0.96139556927309 0.50591211007921 
C14   C     0.36470990017320 0.14103029079200 0.50572543987290 
