data_stdin
_audit_creation_method 'critic2'
_audit_creation_date 2023-8-11
_chemical_formula_sum 'C14 H10'
_cell_formula_units_Z 18
_cell_length_a        29.0266520357
_cell_length_b        29.0300729229
_cell_length_c         6.3847450927
_cell_angle_alpha        89.9667
_cell_angle_beta        90.0549
_cell_angle_gamma       120.0897
_cell_volume          4655.067240
_space_group_crystal_system triclinic
_space_group_IT_number 2
_space_group_name_H-M_alt 'P-1'
_space_group_name_Hall '-P 1'
loop_
_symmetry_equiv_pos_site_id
_symmetry_equiv_pos_as_xyz
 1 'x,y,z'
 2 '-x,-y,-z'
 3 '-1/3+x,-2/3+y,-2/3+z'
 4 '-1/3-x,-2/3-y,-2/3-z'
 5 '-2/3+x,-1/3+y,-1/3+z'
 6 '-2/3-x,-1/3-y,-1/3-z'
loop_
_atom_site_label
_atom_site_type_symbol
_atom_site_fract_x
_atom_site_fract_y
_atom_site_fract_z
H1    H     0.15040820010850 0.26247962002522 0.71397428026157 
H2    H     0.73778792989839 0.88811943982117 0.71314885048265 
H3    H     0.11189917005658 0.84960090988848 0.71372185964757 
H4    H     0.17029736002155 0.18995116019138 0.73319965984165 
H5    H     0.81050517000492 0.98063899994596 0.73239176012931 
H6    H     0.01944410983735 0.82976038987413 0.73277366064423 
H7    H     0.13162888992267 0.31979341013221 0.69231025062549 
H8    H     0.68032600994810 0.81194114992285 0.69154424059073 
H9    H     0.18803554998819 0.86834762990339 0.69225091960032 
H10   H     0.10847756008965 0.38969032017781 0.65386472998699 
H11   H     0.61023180012897 0.71878913015162 0.65311673963442 
H12   H     0.28112214010768 0.89142095018801 0.65392331070767 
H13   H     0.14576855003823 0.12527357986233 0.44071132999621 
H14   H     0.87530446997243 0.02083087983960 0.44029066988311 
H15   H     0.97930508988266 0.85433284993040 0.44027836003137 
H16   H     0.10198152997104 0.13549777992774 0.12166148979147 
H17   H     0.86498890012180 0.96677284995007 0.12155396997739 
H18   H     0.03336239999782 0.89810047000387 0.12140658066283 
H19   H     0.06581635016082 0.18173562018685 0.92674191927875 
H20   H     0.81856138991481 0.88429265010478 0.92670736047938 
H21   H     0.11581099006077 0.93420500984135 0.92663477067939 
H22   H     0.04383750998454 0.25296834995848 0.89720351000488 
H23   H     0.74711735994148 0.79097144014299 0.89716491968862 
H24   H     0.20906086998307 0.95611199990972 0.89725784953677 
H25   H     0.04302040003574 0.33041107991084 0.04285427940921 
H26   H     0.66950506000743 0.71262308012736 0.04266895931201 
H27   H     0.28733227000139 0.95685683984369 0.04298291001388 
H28   H     0.06391104995432 0.39555373017174 0.32586768983228 
H29   H     0.60426388006599 0.66831833998011 0.32540835959428 
H30   H     0.33157930008656 0.93592254019186 0.32601190025544 
C1    C     0.13927622013024 0.23493859009089 0.58332871984373 
C2    C     0.76537847004500 0.90454712000693 0.58267143028154 
C3    C     0.09549483009653 0.86074691994026 0.58307478959677 
C4    C     0.11379655004361 0.24139293008251 0.40646152075386 
C5    C     0.75886742005038 0.87258226985618 0.40598104075584 
C6    C     0.12745782989297 0.88621279993879 0.40630476988426 
C7    C     0.10057993006887 0.28336927984309 0.38983805071287 
C8    C     0.71677065015235 0.81732917018884 0.38935934029532 
C9    C     0.18267435023158 0.89939016017772 0.38978741933981 
C10   C     0.15045881001551 0.19389225984367 0.59530775955660 
C11   C     0.80652970002032 0.95683531012265 0.59465339929777 
C12   C     0.04324264993213 0.84958951018790 0.59494741944076 
C13   C     0.10058396991968 0.20461229997835 0.23738490931406 
C14   C     0.79570574002956 0.89617901993697 0.23708061015316 
C15   C     0.10389257999568 0.89944074005244 0.23720881932598 
C16   C     0.11201006006756 0.32132460019824 0.54949527938856 
C17   C     0.67875425002377 0.79077061004197 0.54886877955603 
C18   C     0.20920123985061 0.88794412993230 0.54947621054615 
C19   C     0.07509015990134 0.28704217987181 0.20401780047793 
C20   C     0.71303743976525 0.78814311980377 0.20370002975024 
C21   C     0.21185929999756 0.92485386998101 0.20403013024550 
C22   C     0.13690018992301 0.15746052994004 0.42917195995775 
C23   C     0.84302677000039 0.97973252981437 0.42872129061232 
C24   C     0.02037591006446 0.86317193981289 0.42880935967597 
C25   C     0.11250795986846 0.16309302982839 0.25262188933910 
C26   C     0.83734178980747 0.94967946993265 0.25234723078082 
C27   C     0.05042691995732 0.88755172006738 0.25235284060606 
C28   C     0.09893677999896 0.36091159984446 0.52824094028207 
C29   C     0.63905497990190 0.73805294995441 0.52761926012132 
C30   C     0.26188205004401 0.90097299000715 0.52829169031217 
C31   C     0.07515662995959 0.20992473988364 0.05440012970388 
C32   C     0.79032855022637 0.86541385016714 0.05424504948267 
C33   C     0.13465770000744 0.92484868008460 0.05430515016115 
C34   C     0.06305702993313 0.24951379004411 0.03806355026528 
C35   C     0.75062822016727 0.81366833003500 0.03790780988835 
C36   C     0.18636820986703 0.93691244004946 0.03806557931995 
C37   C     0.06221122008059 0.32782870001193 0.18563186077682 
C38   C     0.67213317982860 0.73441926996941 0.18530971003627 
C39   C     0.26554395995674 0.93768348990325 0.18571140959406 
C40   C     0.07385520996926 0.36429111014598 0.34493681012845 
C41   C     0.63561545990929 0.70956874995273 0.34446678930701 
C42   C     0.29036140994841 0.92602102997113 0.34503285970151 
