data_stdin
_audit_creation_method 'critic2'
_audit_creation_date 2023-8-11
_chemical_formula_sum 'C14 H10'
_cell_formula_units_Z 4
_cell_length_a        17.7057673204
_cell_length_b         9.2269693139
_cell_length_c         5.9205346204
_cell_angle_alpha        89.9995
_cell_angle_beta        90.0000
_cell_angle_gamma        90.0019
_cell_volume           967.241125
_space_group_crystal_system orthorhombic
_space_group_IT_number 19
_space_group_name_H-M_alt 'P2_12_12_1'
_space_group_name_Hall 'P 2ac 2ab'
loop_
_symmetry_equiv_pos_site_id
_symmetry_equiv_pos_as_xyz
 1 'x,y,z'
 2 '-1/2+x,-1/2-y,-z'
 3 '-1/2-x,-y,-1/2+z'
 4 '-x,-1/2+y,-1/2-z'
loop_
_atom_site_label
_atom_site_type_symbol
_atom_site_fract_x
_atom_site_fract_y
_atom_site_fract_z
H1    H     0.77890076996054 0.44403466972101 0.92002808976666 
H2    H     0.72790976021211 0.19874523979974 0.91574012069640 
H3    H     0.82489151022642 0.64171931026410 0.92521309959610 
H4    H     0.87852886980236 0.88482884973189 0.95217950067206 
H5    H     0.76207296013110 0.02210638961452 0.22020873015218 
H6    H     0.84442938023744 0.10136423956188 0.53677439936451 
H7    H     0.91520154979106 0.28767454013491 0.73115535031408 
H8    H     0.96668971980535 0.53670901018185 0.75034569043794 
H9    H     0.98106748007717 0.77718306984971 0.58960458000547 
H10   H     0.95764487007309 0.95575691053354 0.28299123994448 
C1    C     0.79410164025240 0.37057778968825 0.05592007993171 
C2    C     0.84188151027964 0.41827610002498 0.23201752059592 
C3    C     0.87286233985222 0.56403746955635 0.24113264046287 
C4    C     0.76536775977428 0.23089212011468 0.05265434047815 
C5    C     0.85897409005330 0.31884129991206 0.40985251949318 
C6    C     0.85941560977599 0.66866451971384 0.07113488961326 
C7    C     0.91810889980113 0.60504291025893 0.43052200017283 
C8    C     0.78395259008307 0.13228572000567 0.22512202944997 
C9    C     0.82987304997790 0.17629489953879 0.40122927002027 
C10   C     0.88970461986833 0.80677560050759 0.08601241006573 
C11   C     0.90466433013552 0.36487252011879 0.59568318932378 
C12   C     0.93279949027816 0.50223302965920 0.60637751992919 
C13   C     0.94758529990494 0.74732324032161 0.44258566059083 
C14   C     0.93411490974334 0.84698208033445 0.27297842944728 
