data_stdin
_audit_creation_method 'critic2'
_audit_creation_date 2023-8-11
_chemical_formula_sum 'C14 H10'
_cell_formula_units_Z 4
_cell_length_a        13.7145826901
_cell_length_b         5.9411939204
_cell_length_c        11.6116586700
_cell_angle_alpha        89.9999
_cell_angle_beta        90.0000
_cell_angle_gamma        90.0008
_cell_volume           946.129505
_space_group_crystal_system orthorhombic
_space_group_IT_number 19
_space_group_name_H-M_alt 'P2_12_12_1'
_space_group_name_Hall 'P 2ac 2ab'
loop_
_symmetry_equiv_pos_site_id
_symmetry_equiv_pos_as_xyz
 1 'x,y,z'
 2 '-1/2+x,-1/2-y,-z'
 3 '-x,-1/2+y,-1/2-z'
 4 '-1/2-x,-y,-1/2+z'
loop_
_atom_site_label
_atom_site_type_symbol
_atom_site_fract_x
_atom_site_fract_y
_atom_site_fract_z
H1    H     0.03023450011289 0.74784268060186 0.66231043028010 
H2    H     0.94914848030375 0.44515337009773 0.55658045997224 
H3    H     0.09976141981255 0.99902375080986 0.73971721981994 
H4    H     0.18998756002515 0.29540047043964 0.84063145017182 
H5    H     0.04682207969984 0.16608364032184 0.44317865032079 
H6    H     0.22636486004757 0.19671285017601 0.43824525024354 
H7    H     0.37631362001208 0.38424871965360 0.49409885005417 
H8    H     0.46320382986464 0.68793124018936 0.59724042009948 
H9    H     0.46141290008743 0.02092895923778 0.71900826024992 
H10   H     0.37055916979566 0.31063930983315 0.83183061983169 
C1    C     0.07449946970051 0.62827730031756 0.61422768036081 
C2    C     0.17707547029538 0.65153315939804 0.61224469979376 
C3    C     0.22800205995396 0.83063853032323 0.67253667000458 
C4    C     0.02839414971132 0.45621221076527 0.55481185973424 
C5    C     0.23213355997877 0.49130109929380 0.54752583016418 
C6    C     0.17895278034348 0.99885897040249 0.73608903980869 
C7    C     0.33195801989443 0.84058179080297 0.66688031000673 
C8    C     0.08305696021734 0.29998304968307 0.49061424959337 
C9    C     0.18353547029444 0.31769651026817 0.48731977006759 
C10   C     0.22952747031413 0.16745420999640 0.79263415957293 
C11   C     0.33617081974637 0.50848686943904 0.54416704012085 
C12   C     0.38407260966340 0.67535944061957 0.60153198009189 
C13   C     0.38210730025918 0.01500415016562 0.72507224997104 
C14   C     0.33198814016921 0.17581982070982 0.78755808009345 
