data_stdin
_audit_creation_method 'critic2'
_audit_creation_date 2023-8-11
_chemical_formula_sum 'C14 H10'
_cell_formula_units_Z 2
_cell_length_a         6.0187709138
_cell_length_b        10.1905688800
_cell_length_c        10.2655126311
_cell_angle_alpha        90.0000
_cell_angle_beta        54.1253
_cell_angle_gamma        89.9999
_cell_volume           510.191197
_space_group_crystal_system monoclinic
_space_group_IT_number 7
_space_group_name_H-M_alt 'Pc'
_space_group_name_Hall 'P -2yc'
loop_
_symmetry_equiv_pos_site_id
_symmetry_equiv_pos_as_xyz
 1 'x,y,z'
 2 'x,-y,-1/2+z'
loop_
_atom_site_label
_atom_site_type_symbol
_atom_site_fract_x
_atom_site_fract_y
_atom_site_fract_z
H1    H     0.95393316908093 0.82152174047881 0.95611944050616 
H2    H     0.06897002017412 0.59938754016787 0.84101672031516 
H3    H     0.85470807060944 0.99964506951662 0.05526380978349 
H4    H     0.72466153054746 0.21399068954976 0.18530653975924 
H5    H     0.89126631027994 0.40352642952231 0.01850380045005 
H6    H     0.59330819002967 0.43271094000275 0.31630681004866 
H7    H     0.35804397984594 0.57219241037227 0.55151200997437 
H8    H     0.23436609039890 0.79349251003182 0.67519267019306 
H9    H     0.25829411011688 0.03029866966670 0.65136864979859 
H10   H     0.42394037048553 0.23204718033761 0.48588441027243 
C1    C     0.87369851975069 0.73731188974487 0.03624085049221 
C2    C     0.70542008063757 0.75731904004107 0.20442301951182 
C3    C     0.63278525075397 0.88703731017957 0.27705289974026 
C4    C     0.93901619967089 0.61229123038090 0.97090173004884 
C5    C     0.60373334037880 0.64419357037288 0.30600070045749 
C6    C     0.72417101043598 0.00407721953239 0.18574005963785 
C7    C     0.46142438092462 0.89804938974287 0.44831641942107 
C8    C     0.83839132013877 0.50120621980097 0.07140019010281 
C9    C     0.67322862046599 0.51747618006641 0.23648055961051 
C10   C     0.65054080942236 0.12598080036746 0.25936736027062 
C11   C     0.43259580075608 0.66013614972258 0.47704551941503 
C12   C     0.36456840961482 0.78189346999543 0.54508666028421 
C13   C     0.38898661028339 0.02361140986698 0.52074900983168 
C14   C     0.48173412096831 0.13626928965221 0.42809070976402 
