data_stdin
_audit_creation_method 'critic2'
_audit_creation_date 2023-8-11
_chemical_formula_sum 'C14 H10'
_cell_formula_units_Z 8
_cell_length_a        27.4711004582
_cell_length_b         5.1076210421
_cell_length_c        13.9681247890
_cell_angle_alpha        90.0025
_cell_angle_beta        75.8310
_cell_angle_gamma        89.9921
_cell_volume          1900.271041
_space_group_crystal_system triclinic
_space_group_IT_number 2
_space_group_name_H-M_alt 'P-1'
_space_group_name_Hall '-P 1'
loop_
_symmetry_equiv_pos_site_id
_symmetry_equiv_pos_as_xyz
 1 'x,y,z'
 2 '-x,-y,-z'
 3 '-1/2+x,-1/2+y,z'
 4 '-1/2-x,-1/2-y,-z'
loop_
_atom_site_label
_atom_site_type_symbol
_atom_site_fract_x
_atom_site_fract_y
_atom_site_fract_z
H1    H     0.02278408983702 0.24911452000410 0.45513930996004 
H2    H     0.97722399017506 0.24883703076854 0.04489130986961 
H3    H     0.99290408009999 0.91784254912543 0.35697467971083 
H4    H     0.00707155019782 0.91756157972516 0.14311102970927 
H5    H     0.04869326014973 0.50685293073542 0.53770861970675 
H6    H     0.95133626010239 0.50666103094423 0.96230673018712 
H7    H     0.08357529987177 0.82082426037414 0.63642933016716 
H8    H     0.91648043981105 0.82064639015956 0.86353127036005 
H9    H     0.05391282986723 0.62100961961115 0.24457871983791 
H10   H     0.94603893984714 0.62096093973925 0.25550186021879 
H11   H     0.14470215994701 0.67028334035158 0.23036098971965 
H12   H     0.85525523004949 0.67044223083141 0.26965803019582 
H13   H     0.21492412999170 0.88691165078069 0.27709031022967 
H14   H     0.78505640007021 0.88717784931084 0.22286144986900 
H15   H     0.24702292998929 0.21465341938636 0.37582045013311 
H16   H     0.75298810014612 0.21493191083140 0.12406955982885 
H17   H     0.23290874006088 0.55558491909919 0.49950016967777 
H18   H     0.76713090013708 0.55574482076874 0.00038292031116 
H19   H     0.17545610990979 0.84675911022063 0.61931716974594 
H20   H     0.82460465004268 0.84677326017717 0.88058935013902 
C1    C     0.05012917011955 0.12590264987354 0.40590651971228 
C2    C     0.94986771006081 0.12572531903767 0.09412136996017 
C3    C     0.10176919004981 0.15642594052963 0.40077314967973 
C4    C     0.89823174001728 0.15637553924972 0.09922318031022 
C5    C     0.12065642988496 0.34600753041295 0.46026527987746 
C6    C     0.87936243990749 0.34596996051227 0.03970361972651 
C7    C     0.03304006986364 0.93758101998986 0.35067545964253 
C8    C     0.96693884003074 0.93739817008614 0.14938102966131 
C9    C     0.13636385987004 0.98994661025534 0.33501352025875 
C10   C     0.86362286006814 0.99001465933942 0.16497630968982 
C11   C     0.08912459994691 0.51461122055141 0.52854733027439 
C12   C     0.91090720000928 0.51449193025885 0.97143418982545 
C13   C     0.17354026997705 0.36418183038720 0.45009907977534 
C14   C     0.82648203011090 0.36424106948248 0.04982865967553 
C15   C     0.06721054008371 0.77158596049755 0.28711405031397 
C16   C     0.93275440988761 0.77152686017532 0.21293941006612 
C17   C     0.11810827009817 0.79891708039321 0.27930502989485 
C18   C     0.88186037014113 0.79898008051884 0.22071620000849 
C19   C     0.10851294984249 0.69204474010274 0.58444449998364 
C20   C     0.89153407999240 0.69193189996346 0.91550873007495 
C21   C     0.18908315990644 0.01675750008327 0.32695090007900 
C22   C     0.81090695010960 0.01693491931144 0.17300128004779 
C23   C     0.20686075010526 0.19772153065623 0.38161343981176 
C24   C     0.79314670012912 0.19789609015155 0.11830841030737 
C25   C     0.19245530995551 0.54562526973588 0.50828978036436 
C26   C     0.80758245986594 0.54569750971683 0.99161568965666 
C27   C     0.16062608003223 0.70741544964294 0.57471635008931 
C28   C     0.83942371989664 0.70740091067485 0.92520005028682 
