data_stdin
_audit_creation_method 'critic2'
_audit_creation_date 2023-8-11
_chemical_formula_sum 'C14 H10'
_cell_formula_units_Z 4
_cell_length_a         8.1697624823
_cell_length_b         5.9908758701
_cell_length_c        19.7183157745
_cell_angle_alpha        89.9997
_cell_angle_beta        87.0565
_cell_angle_gamma        90.0000
_cell_volume           963.820567
_space_group_crystal_system monoclinic
_space_group_IT_number 5
_space_group_name_H-M_alt 'C2'
_space_group_name_Hall 'C 2y'
loop_
_symmetry_equiv_pos_site_id
_symmetry_equiv_pos_as_xyz
 1 'x,y,z'
 2 '-x,-1/2+y,-1/2-z'
 3 'x,-1/2+y,-1/2+z'
 4 '-x,y,-z'
loop_
_atom_site_label
_atom_site_type_symbol
_atom_site_fract_x
_atom_site_fract_y
_atom_site_fract_z
H1    H     0.07782485989310 0.00910624049817 0.32404463979072 
H2    H     0.08297297999841 0.01789060053171 0.44714703992005 
H3    H     0.08637063033699 0.99933050019681 0.22240137975999 
H4    H     0.10319575021637 0.98021177082007 0.09874703977842 
H5    H     0.22117856952516 0.71501036041209 0.51025447005759 
H6    H     0.35133387962261 0.39793913926651 0.44579652999565 
H7    H     0.41617006058240 0.20480460044031 0.34007642009385 
H8    H     0.41879234044535 0.18655721052418 0.21521216006759 
H9    H     0.36575489986878 0.35621936038073 0.10692408980703 
H10   H     0.24863542011977 0.66217309074819 0.03903560997917 
C1    C     0.13826717056150 0.87373710940868 0.34957023004227 
C2    C     0.21208677040668 0.69715576929694 0.31164936018978 
C3    C     0.21551536959932 0.68810936972280 0.23792605022566 
C4    C     0.14164137058670 0.87939610037939 0.41970040979507 
C5    C     0.28785655006402 0.52164274052468 0.34780105008836 
C6    C     0.14776439959412 0.85744276015187 0.19806716004225 
C7    C     0.29258684026309 0.50260627019832 0.20372524013896 
C8    C     0.21908749963099 0.70858711053556 0.45513003990426 
C9    C     0.29084834010163 0.53220463006795 0.41940168002733 
C10   C     0.15856434033810 0.84792703066653 0.12775454981558 
C11   C     0.36069757060604 0.33734794010281 0.31137222993323 
C12   C     0.36253212043034 0.32759610023327 0.24225483023413 
C13   C     0.30315119059680 0.49698429049326 0.13189922977991 
C14   C     0.23861167054030 0.66778171059128 0.09430329020688 
