data_stdin
_audit_creation_method 'critic2'
_audit_creation_date 2023-8-11
_chemical_formula_sum 'C14 H10'
_cell_formula_units_Z 4
_cell_length_a        14.4860413753
_cell_length_b         4.7874214031
_cell_length_c        14.0718857858
_cell_angle_alpha        89.9889
_cell_angle_beta        78.4398
_cell_angle_gamma        89.9942
_cell_volume           956.099872
_space_group_crystal_system monoclinic
_space_group_IT_number 14
_space_group_name_H-M_alt 'P2_1/c'
_space_group_name_Hall '-P 2ybc'
loop_
_symmetry_equiv_pos_site_id
_symmetry_equiv_pos_as_xyz
 1 'x,y,z'
 2 '-x,-y,-z'
 3 '-1/2-x,-1/2+y,-1/2-z'
 4 '-1/2+x,-1/2-y,-1/2+z'
loop_
_atom_site_label
_atom_site_type_symbol
_atom_site_fract_x
_atom_site_fract_y
_atom_site_fract_z
H1    H     0.53006298980940 0.73642098011114 0.53896491964879 
H2    H     0.65159209000526 0.40364976014032 0.46594952024123 
H3    H     0.43067593005577 0.00144262969509 0.60194234982052 
H4    H     0.31001928034590 0.32778754982597 0.68474181966158 
H5    H     0.73809007017874 0.12338959951752 0.56995296016979 
H6    H     0.70310287985676 0.19350082083344 0.74827531013609 
H7    H     0.61623394996751 0.42391422090696 0.89205542013748 
H8    H     0.49335523024475 0.75456868054713 0.97057509998635 
H9    H     0.37093776001967 0.09373809101567 0.96064199995488 
H10   H     0.28026877994413 0.38053162003075 0.86342248035827 
C1    C     0.56766946962093 0.62148061974817 0.58594125022441 
C2    C     0.54540007989758 0.66444346909815 0.68718972976260 
C3    C     0.47288564007850 0.85786279037990 0.73314716015059 
C4    C     0.63618703021499 0.43201384104442 0.54432099005752 
C5    C     0.59651929017438 0.50796797964939 0.74594953030250 
C6    C     0.41873373989331 0.01948237066245 0.68046753984987 
C7    C     0.45472289977916 0.88745260949623 0.83618385977374 
C8    C     0.68561892013207 0.27617613042605 0.60271906970626 
C9    C     0.66596229961111 0.31465277079914 0.70209549035212 
C10   C     0.35067734029047 0.20386266009552 0.72663674009206 
C11   C     0.57638216010939 0.54659501025455 0.84884287978757 
C12   C     0.50848886977864 0.72882195915566 0.89207455971807 
C13   C     0.38417127977390 0.07474701914988 0.88188656992034 
C14   C     0.33322621018378 0.23252604977705 0.82814849976723 
