data_stdin
_audit_creation_method 'critic2'
_audit_creation_date 2023-8-11
_chemical_formula_sum 'C14 H10'
_cell_formula_units_Z 4
_cell_length_a         9.4409462387
_cell_length_b        15.4497463058
_cell_length_c         6.5918939135
_cell_angle_alpha        90.0008
_cell_angle_beta        99.9296
_cell_angle_gamma        89.9995
_cell_volume           947.092190
_space_group_crystal_system monoclinic
_space_group_IT_number 14
_space_group_name_H-M_alt 'P2_1/c'
_space_group_name_Hall '-P 2ybc'
loop_
_symmetry_equiv_pos_site_id
_symmetry_equiv_pos_as_xyz
 1 'x,y,z'
 2 '-x,-y,-z'
 3 '-x,-1/2+y,-1/2-z'
 4 'x,-1/2-y,-1/2+z'
loop_
_atom_site_label
_atom_site_type_symbol
_atom_site_fract_x
_atom_site_fract_y
_atom_site_fract_z
H1    H     0.43670232835581 0.79250981542446 0.81299115130874 
H2    H     0.18725890930481 0.79511467432392 0.63684618684911 
H3    H     0.64255171235110 0.79511925220874 0.95168867057273 
H4    H     0.89532528754989 0.79595284820757 0.10910867529647 
H5    H     0.12014648679553 0.86709554874530 0.29510025723011 
H6    H     0.31058309115296 0.93223571264316 0.12598940435094 
H7    H     0.56205695881910 0.96318718101827 0.12031193357608 
H8    H     0.81614770535027 0.96244133667105 0.28670247066438 
H9    H     0.00237914880203 0.92813036467609 0.57983177151403 
H10   H     0.07945772501623 0.86365960855652 0.92541631425389 
C1    C     0.41162404780495 0.82373339792081 0.66324247062028 
C2    C     0.52206606143651 0.86126252328657 0.57235912469642 
C3    C     0.67211333311107 0.86141363848113 0.67155085618713 
C4    C     0.26979372829207 0.82521280272838 0.56395859353199 
C5    C     0.48373867338358 0.89977094708332 0.37321480289746 
C6    C     0.71936402026258 0.82480440308028 0.86783972103587 
C7    C     0.77730880636154 0.89917764255236 0.56662041682814 
C8    C     0.23221898219676 0.86504067190287 0.37035694700227 
C9    C     0.33806238536786 0.90136421802148 0.27635551034338 
C10   C     0.86323077777612 0.82548716071537 0.95816415292012 
C11   C     0.59338396899223 0.93583111433140 0.27366757273635 
C12   C     0.73401370911142 0.93546239613307 0.36585330209915 
C13   C     0.92326362117310 0.89955077057381 0.66209805846899 
C14   C     0.96626281067781 0.86340120661904 0.85499138308064 
