data_stdin
_audit_creation_method 'critic2'
_audit_creation_date 2023-8-11
_chemical_formula_sum 'C14 H10'
_cell_formula_units_Z 4
_cell_length_a        10.2506199885
_cell_length_b         7.9090361001
_cell_length_c        12.6793822812
_cell_angle_alpha        89.9997
_cell_angle_beta        69.7713
_cell_angle_gamma        89.9999
_cell_volume           964.545410
_space_group_crystal_system monoclinic
_space_group_IT_number 14
_space_group_name_H-M_alt 'P2_1/c'
_space_group_name_Hall '-P 2ybc'
loop_
_symmetry_equiv_pos_site_id
_symmetry_equiv_pos_as_xyz
 1 'x,y,z'
 2 '-x,-y,-z'
 3 '-x,-1/2+y,-1/2-z'
 4 'x,-1/2-y,-1/2+z'
loop_
_atom_site_label
_atom_site_type_symbol
_atom_site_fract_x
_atom_site_fract_y
_atom_site_fract_z
H1    H     0.19133832948033 0.59906361047177 0.89420804016587 
H2    H     0.43867086975136 0.52804328984786 0.82598745972278 
H3    H     0.99024062002564 0.65906642023632 0.95367495986636 
H4    H     0.74466925944025 0.73395343061268 0.03364532034787 
H5    H     0.59914893973502 0.65929819996713 0.91228416979777 
H6    H     0.50546857029074 0.86227930989503 0.07033869016325 
H7    H     0.31392333993384 0.02574454042697 0.19673217986805 
H8    H     0.06493503967990 0.09823728023138 0.27192064000230 
H9    H     0.82894469955443 0.06426163047991 0.27259896997177 
H10   H     0.66121642987730 0.93896853034668 0.19289689980885 
C1    C     0.25827608024518 0.65726140000925 0.93416790035562 
C2    C     0.20178200997598 0.77130369959253 0.02425880003804 
C3    C     0.05505344954512 0.81472869033240 0.06804595003257 
C4    C     0.39854771019173 0.61812934052561 0.89464291029285 
C5    C     0.29398074014013 0.84634742997471 0.07339345969784 
C6    C     0.95690050000625 0.74610704955937 0.02441905993116 
C7    C     0.00663679995873 0.93135118016182 0.15951636974561 
C8    C     0.48908689983705 0.69137451057730 0.94363489970127 
C9    C     0.43680982953632 0.80342696000261 0.03190585033966 
C10   C     0.81747298026236 0.78891144002892 0.06931286018998 
C11   C     0.24116412962755 0.96580335940579 0.16288967029906 
C12   C     0.10342022014444 0.00620551983383 0.20439393964691 
C13   C     0.86388303978705 0.97361541959244 0.20372431994169 
C14   C     0.77047134034218 0.90347841014285 0.15940750992946 
