data_stdin
_audit_creation_method 'critic2'
_audit_creation_date 2023-8-11
_chemical_formula_sum 'C14 H10'
_cell_formula_units_Z 8
_cell_length_a         5.9412850417
_cell_length_b        38.8388464530
_cell_length_c         8.4287781001
_cell_angle_alpha        89.9998
_cell_angle_beta        90.0007
_cell_angle_gamma        89.9981
_cell_volume          1944.962945
_space_group_crystal_system orthorhombic
_space_group_IT_number 56
_space_group_name_H-M_alt 'Pccn'
_space_group_name_Hall '-P 2ab 2ac'
loop_
_symmetry_equiv_pos_site_id
_symmetry_equiv_pos_as_xyz
 1 'x,y,z'
 2 '-x,-y,-z'
 3 '-1/2-x,-1/2-y,z'
 4 '-1/2+x,-1/2+y,-z'
 5 '-1/2+x,-y,-1/2-z'
 6 '-1/2-x,y,-1/2+z'
 7 '-x,-1/2+y,-1/2-z'
 8 'x,-1/2-y,-1/2+z'
loop_
_atom_site_label
_atom_site_type_symbol
_atom_site_fract_x
_atom_site_fract_y
_atom_site_fract_z
H1    H     0.89599968965897 0.39456306999471 0.75241120045265 
H2    H     0.89995189961463 0.45585576011717 0.69346446017189 
H3    H     0.87468204042792 0.34377246004261 0.79319325002322 
H4    H     0.83436272943182 0.28244153988329 0.84372817980199 
H5    H     0.59152975017812 0.49434244007879 0.78905610013961 
H6    H     0.27215446959008 0.46929777004789 0.94243308054100 
H7    H     0.08458943024621 0.42040491999917 0.06286325997477 
H8    H     0.06346921989398 0.35815317000267 0.11781575980875 
H9    H     0.21559805979559 0.30079584989946 0.09861864990772 
H10   H     0.50688707978895 0.25988983998084 0.00050807947341 
C1    C     0.75818456081080 0.41041053004548 0.79545997047696 
C2    C     0.57970492038076 0.39544832012552 0.88203550035838 
C3    C     0.56681550062985 0.35875005001856 0.91466488954220 
C4    C     0.76177990042471 0.44535498994577 0.76283124034893 
C5    C     0.40195954027429 0.41739909987391 0.93526044974980 
C6    C     0.72973585984230 0.33494810002177 0.86057824986646 
C7    C     0.37748315988421 0.34571873010774 0.00024789016522 
C8    C     0.58680880964378 0.46691687995445 0.81555238023550 
C9    C     0.40938059022475 0.45301953002034 0.90045757956540 
C10   C     0.70727442918831 0.30000886993626 0.88964570008182 
C11   C     0.21749913050085 0.40321725992635 0.02251025036989 
C12   C     0.20566317973159 0.36880014010838 0.05317957948296 
C13   C     0.36013167930682 0.30999172009851 0.03100061988193 
C14   C     0.52234590081357 0.28734917988797 0.97650604044694 
