data_stdin
_audit_creation_method 'critic2'
_audit_creation_date 2023-8-11
_chemical_formula_sum 'C14 H10'
_cell_formula_units_Z 4
_cell_length_a         8.2787421705
_cell_length_b         6.0488289400
_cell_length_c        19.4185077900
_cell_angle_alpha        90.0000
_cell_angle_beta        89.9994
_cell_angle_gamma        89.9998
_cell_volume           972.414696
_space_group_crystal_system orthorhombic
_space_group_IT_number 33
_space_group_name_H-M_alt 'Pna2_1'
_space_group_name_Hall 'P 2c -2n'
loop_
_symmetry_equiv_pos_site_id
_symmetry_equiv_pos_as_xyz
 1 'x,y,z'
 2 '-x,-y,-1/2+z'
 3 '-1/2-x,-1/2+y,-1/2+z'
 4 '-1/2+x,-1/2-y,z'
loop_
_atom_site_label
_atom_site_type_symbol
_atom_site_fract_x
_atom_site_fract_y
_atom_site_fract_z
H1    H     0.23662163057276 0.37358027964188 0.00145465987810 
H2    H     0.29098402996747 0.33272937968079 0.87872281024282 
H3    H     0.19534365940935 0.39657677079353 0.10275845989124 
H4    H     0.14059691030248 0.40848553058808 0.22577367991370 
H5    H     0.44204443040418 0.00508333961678 0.83411944020249 
H6    H     0.53348955985280 0.71317649925341 0.91572485020212 
H7    H     0.55071592056132 0.56441842971578 0.03092058000601 
H8    H     0.49476694017408 0.58827355033439 0.15536256002463 
H9    H     0.37341107942081 0.77658770004146 0.25278835982082 
H10   H     0.22896140058608 0.10213181927273 0.30293697997397 
C1    C     0.30230618940129 0.22854294934996 0.98388048003380 
C2    C     0.35303721017594 0.06587819072342 0.03151109987727 
C3    C     0.31986181040956 0.08031443008750 0.10487663002838 
C4    C     0.33300610992261 0.20579766040819 0.91413386992263 
C5    C     0.43646737956575 0.87640258990951 0.00561850014544 
C6    C     0.23625896016189 0.25999075066730 0.13464056994307 
C7    C     0.37041129000446 0.90418851932061 0.14898740020947 
C8    C     0.41693684022142 0.02025385938935 0.88894108017894 
C9    C     0.46802978943875 0.85804872008077 0.93418715022559 
C10   C     0.20513795983261 0.26735467973531 0.20466076999787 
C11   C     0.48700877032652 0.70629205062669 0.05199169995384 
C12   C     0.45577968054107 0.71960964038077 0.12081470018031 
C13   C     0.33512050008921 0.91395412047507 0.22024224979432 
C14   C     0.25443818996476 0.09356340923931 0.24795753992944 
