data_stdin
_audit_creation_method 'critic2'
_audit_creation_date 2023-8-11
_chemical_formula_sum 'C14 H10'
_cell_formula_units_Z 8
_cell_length_a        18.8999477110
_cell_length_b         6.7644730225
_cell_length_c        25.7295499434
_cell_angle_alpha        89.9996
_cell_angle_beta       145.0301
_cell_angle_gamma        90.0003
_cell_volume          1885.351480
_space_group_crystal_system monoclinic
_space_group_IT_number 15
_space_group_name_H-M_alt 'C2/c'
_space_group_name_Hall '-C 2yc'
loop_
_symmetry_equiv_pos_site_id
_symmetry_equiv_pos_as_xyz
 1 'x,y,z'
 2 '-1/2-x,-1/2-y,-z'
 3 '-x,y,-1/2-z'
 4 '-1/2+x,-1/2-y,-1/2+z'
 5 '-1/2+x,-1/2+y,z'
 6 '-x,-y,-z'
 7 '-1/2-x,-1/2+y,-1/2-z'
 8 'x,-y,-1/2+z'
loop_
_atom_site_label
_atom_site_type_symbol
_atom_site_fract_x
_atom_site_fract_y
_atom_site_fract_z
H1    H     0.98162878023215 0.62912677013447 0.06583709004037 
H2    H     0.88212033963633 0.66560486063431 0.09078859966828 
H3    H     0.07329102980321 0.60033850070548 0.05462764969271 
H4    H     0.18788982963631 0.57503100064510 0.04179493983865 
H5    H     0.90951134008965 0.97618875988647 0.15892978023012 
H6    H     0.03431029008511 0.25144366063765 0.19768807029788 
H7    H     0.15681611001416 0.39398841954101 0.20202871993708 
H8    H     0.26732930034739 0.36065726950830 0.18527848015428 
H9    H     0.32760334965540 0.16531030998155 0.14694008992206 
H10   H     0.31612750021845 0.85544882001878 0.08756753004892 
C1    C     0.99302130007756 0.76684457966396 0.09391829011468 
C2    C     0.06515680965970 0.92023596953003 0.11582023982795 
C3    C     0.13002220030568 0.90058168948121 0.10575543007992 
C4    C     0.93735291034469 0.78651885990800 0.10855842018265 
C5    C     0.07754868008404 0.09918238931305 0.15225482004596 
C6    C     0.12688187039114 0.72635913997734 0.07367898027517 
C7    C     0.20394583008854 0.06121706946449 0.13212031998060 
C8    C     0.95188497009423 0.96165384070761 0.14623179006910 
C9    C     0.02071881976451 0.11569840982780 0.16736663983952 
C10   C     0.19247901978195 0.71093359011855 0.06717443990576 
C11   C     0.14964931000520 0.25826955994888 0.17515773018983 
C12   C     0.21056733000140 0.23986375994157 0.16569110986090 
C13   C     0.27094757018479 0.04137870985064 0.12557762995904 
C14   C     0.26518818003437 0.86941991997395 0.09319981989322 
