data_stdin
_audit_creation_method 'critic2'
_audit_creation_date 2023-8-11
_chemical_formula_sum 'C14 H10'
_cell_formula_units_Z 2
_cell_length_a         6.0086801908
_cell_length_b        11.6219320500
_cell_length_c         7.7661960186
_cell_angle_alpha        89.9999
_cell_angle_beta       110.2552
_cell_angle_gamma        89.9998
_cell_volume           508.794710
_space_group_crystal_system monoclinic
_space_group_IT_number 4
_space_group_name_H-M_alt 'P2_1'
_space_group_name_Hall 'P 2yb'
loop_
_symmetry_equiv_pos_site_id
_symmetry_equiv_pos_as_xyz
 1 'x,y,z'
 2 '-x,-1/2+y,-z'
loop_
_atom_site_label
_atom_site_type_symbol
_atom_site_fract_x
_atom_site_fract_y
_atom_site_fract_z
H1    H     0.99736777952580 0.01156634039336 0.47227191061172 
H2    H     0.13587495042724 0.14902961967399 0.72404344038597 
H3    H     0.89696744991909 0.89780669993456 0.26557446998277 
H4    H     0.75816559096715 0.77402071024587 0.99295962057234 
H5    H     0.48485484960392 0.27678675007814 0.75616726014836 
H6    H     0.68576532914387 0.26448820011137 0.52757109957516 
H7    H     0.71846291990609 0.18406987957298 0.24781662053419 
H8    H     0.57628683937282 0.05442077983745 0.98150488965305 
H9    H     0.30080835075046 0.90944565999858 0.80524643993751 
H10   H     0.95237815966579 0.78029215042800 0.75864422061776 
C1    C     0.14885409968043 0.06570008988085 0.48184362012997 
C2    C     0.25991278925049 0.05675215958710 0.34889490965817 
C3    C     0.17845796916419 0.97858948016035 0.19342093947676 
C4    C     0.22640546958779 0.14417158004005 0.62468857936151 
C5    C     0.45674703982890 0.13077307013259 0.36678272015392 
C6    C     0.98700286938844 0.90166410028081 0.16601388001905 
C7    C     0.29374608027129 0.97963951012726 0.06030486966542 
C8    C     0.42182257939070 0.21608758965920 0.64270096006316 
C9    C     0.53492972102154 0.20893449026998 0.51530220047180 
C10   C     0.90806442947067 0.83148245980615 0.01255911021249 
C11   C     0.56904601070128 0.12708355994028 0.23163801051405 
C12   C     0.49048535042992 0.05516084999851 0.08412964029513 
C13   C     0.21097084963557 0.90660228989296 0.90534850947512 
C14   C     0.01913111059756 0.83450488984869 0.88011197984360 
