data_stdin
_audit_creation_method 'critic2'
_audit_creation_date 2023-8-11
_chemical_formula_sum 'C14 H10'
_cell_formula_units_Z 4
_cell_length_a        14.4384450614
_cell_length_b         6.5237023718
_cell_length_c        10.7819829007
_cell_angle_alpha        90.0005
_cell_angle_beta        71.5776
_cell_angle_gamma        90.0011
_cell_volume           963.532026
_space_group_crystal_system monoclinic
_space_group_IT_number 14
_space_group_name_H-M_alt 'P2_1/c'
_space_group_name_Hall '-P 2ybc'
loop_
_symmetry_equiv_pos_site_id
_symmetry_equiv_pos_as_xyz
 1 'x,y,z'
 2 '-x,-y,-z'
 3 '-x,-1/2+y,-1/2-z'
 4 'x,-1/2-y,-1/2+z'
loop_
_atom_site_label
_atom_site_type_symbol
_atom_site_fract_x
_atom_site_fract_y
_atom_site_fract_z
H1    H     0.06273320006035 0.57647112056452 0.66439103951790 
H2    H     0.98777485961226 0.32176414058043 0.55940718025323 
H3    H     0.13278964965656 0.79354070964435 0.72985833044118 
H4    H     0.21570585977806 0.03467953938103 0.83319279969363 
H5    H     0.08367564967925 0.01885803004872 0.44505389019152 
H6    H     0.25429566013043 0.97256419059563 0.44230979020929 
H7    H     0.39619602038571 0.08866265968309 0.49618368961338 
H8    H     0.47738354981321 0.34017606992868 0.59830172958079 
H9    H     0.47264172994128 0.65514443954078 0.72309844014070 
H10   H     0.38407922993431 0.96518325055763 0.83566801027232 
C1    C     0.10615233987617 0.44622659984690 0.61542802991763 
C2    C     0.20464647013622 0.42725684001446 0.61156611989904 
C3    C     0.25297779030047 0.57747283987950 0.66922250956156 
C4    C     0.06321526998791 0.30148809034522 0.55689088012742 
C5    C     0.25814851985331 0.25180053073072 0.54813795044993 
C6    C     0.20637692989452 0.75850736028423 0.72994751036125 
C7    C     0.35151657029249 0.54223436979545 0.66547302983425 
C8    C     0.11686855009140 0.13059987962501 0.49287322048139 
C9    C     0.21260567992436 0.10565888968173 0.48986197982266 
C10   C     0.25288867997953 0.89545493986756 0.78838419971043 
C11   C     0.35738512013916 0.22466275009007 0.54443543016306 
C12   C     0.40194091968380 0.36326930948818 0.60150622025881 
C13   C     0.39767918027194 0.68450270944491 0.72596435963945 
C14   C     0.34895642034741 0.85721366971314 0.78780390971466 
