data_stdin
_audit_creation_method 'critic2'
_audit_creation_date 2023-8-11
_chemical_formula_sum 'C14 H10'
_cell_formula_units_Z 16
_cell_length_a        27.4465793472
_cell_length_b        24.6880645688
_cell_length_c         5.8496186799
_cell_angle_alpha        90.0026
_cell_angle_beta        89.9947
_cell_angle_gamma        90.0009
_cell_volume          3963.718695
_space_group_crystal_system orthorhombic
_space_group_IT_number 43
_space_group_name_H-M_alt 'Fdd2'
_space_group_name_Hall 'F 2 -2d'
loop_
_symmetry_equiv_pos_site_id
_symmetry_equiv_pos_as_xyz
 1 'x,y,z'
 2 '-x,-y,z'
 3 '-1/4+x,-1/4-y,-3/4+z'
 4 '-1/4-x,-1/4+y,-3/4+z'
 5 '-1/2+x,y,-1/2+z'
 6 '-1/2-x,-y,-1/2+z'
 7 '-3/4+x,-1/4-y,-1/4+z'
 8 '-3/4-x,-1/4+y,-1/4+z'
 9 'x,-1/2+y,-1/2+z'
 10 '-x,-1/2-y,-1/2+z'
 11 '-1/4+x,-3/4-y,-1/4+z'
 12 '-1/4-x,-3/4+y,-1/4+z'
 13 '-1/2+x,-1/2+y,z'
 14 '-1/2-x,-1/2-y,z'
 15 '-3/4+x,-3/4-y,-3/4+z'
 16 '-3/4-x,-3/4+y,-3/4+z'
loop_
_atom_site_label
_atom_site_type_symbol
_atom_site_fract_x
_atom_site_fract_y
_atom_site_fract_z
H1    H     0.46721636091345 0.24854355313696 0.41510302692126 
H2    H     0.41906177722069 0.16578023719938 0.44589190732619 
H3    H     0.50777782031250 0.31613823295661 0.40317097895769 
H4    H     0.55392166688562 0.40059763049343 0.39513271752182 
H5    H     0.36448512424919 0.15083478037633 0.78652214266879 
H6    H     0.35921050151512 0.22061562029575 0.08628361000604 
H7    H     0.38062819979747 0.30925682219259 0.23828790067435 
H8    H     0.42867671314655 0.39398723839221 0.21577157426380 
H9    H     0.48752387068566 0.45075958877805 0.02788023322986 
H10   H     0.54405038352076 0.46936297186096 0.70286270842332 
C1    C     0.44346786600453 0.24346644843534 0.56217761262000 
C2    C     0.44092849118136 0.28437476183414 0.73109215890231 
C3    C     0.46938394161664 0.33400408120754 0.71942338124106 
C4    C     0.41617317419883 0.19637620865495 0.57943894289329 
C5    C     0.40920667223760 0.27593226314099 0.92175756335841 
C6    C     0.50246421495066 0.34520272702499 0.54040959416878 
C7    C     0.46430606783796 0.37323235961518 0.89745829041019 
C8    C     0.38540001699327 0.18810475808975 0.76891194459198 
C9    C     0.38227505136519 0.22725239686319 0.93728513916867 
C10   C     0.52872306290866 0.39311416156537 0.53525593673348 
C11   C     0.40514265874478 0.31665137410452 0.09509304265309 
C12   C     0.43155800341930 0.36331228237122 0.08293061839970 
C13   C     0.49176918142291 0.42164972125429 0.88899261924943 
C14   C     0.52336954705738 0.43180856100858 0.70986696691305 
