data_stdin
_audit_creation_method 'critic2'
_audit_creation_date 2023-8-11
_chemical_formula_sum 'C14 H10'
_cell_formula_units_Z 4
_cell_length_a         6.3336363172
_cell_length_b        27.3723443216
_cell_length_c         5.3392297106
_cell_angle_alpha        89.9979
_cell_angle_beta        90.0000
_cell_angle_gamma        90.0002
_cell_volume           925.643429
_space_group_crystal_system orthorhombic
_space_group_IT_number 19
_space_group_name_H-M_alt 'P2_12_12_1'
_space_group_name_Hall 'P 2ac 2ab'
loop_
_symmetry_equiv_pos_site_id
_symmetry_equiv_pos_as_xyz
 1 'x,y,z'
 2 '-x,-1/2+y,-1/2-z'
 3 '-1/2-x,-y,-1/2+z'
 4 '-1/2+x,-1/2-y,-z'
loop_
_atom_site_label
_atom_site_type_symbol
_atom_site_fract_x
_atom_site_fract_y
_atom_site_fract_z
H1    H     0.92796990342729 0.37508322321998 0.58051610774128 
H2    H     0.91134465674398 0.44121533624874 0.26957909092011 
H3    H     0.92556575057897 0.31944329418550 0.82519377804852 
H4    H     0.92675978639682 0.25762361467789 0.15393116080787 
H5    H     0.59714343766467 0.49468394591028 0.24146913231404 
H6    H     0.29345650109764 0.48139454488750 0.53212521255197 
H7    H     0.12734802631910 0.43692013804185 0.87237960809822 
H8    H     0.13999862111514 0.37362219239060 0.20125373424349 
H9    H     0.32725324739074 0.31021716572960 0.42429728842881 
H10   H     0.63152237994819 0.25371156148444 0.46630650876306 
C1    C     0.78855149670952 0.39820064205486 0.57305234608361 
C2    C     0.62065996557479 0.38993895755009 0.74203451164900 
C3    C     0.62480430156317 0.35161830894024 0.93034267473958 
C4    C     0.77981703316831 0.43535847775642 0.39726860091201 
C5    C     0.43962115086214 0.42093282828943 0.72529489989069 
C6    C     0.79340172660559 0.31814093474703 0.95487311164878 
C7    C     0.45139513865677 0.34724846676177 0.10005960141548 
C8    C     0.60136370222592 0.46580487248533 0.38158538634310 
C9    C     0.43381192692474 0.45842157143815 0.54312989375521 
C10   C     0.79521815213339 0.28315595947197 0.14270956345046 
C11   C     0.26580915553719 0.41367158269994 0.89252410878315 
C12   C     0.27232662248691 0.37864121469880 0.07371988214360 
C13   C     0.45822543889434 0.31185201560569 0.29230237518728 
C14   C     0.62782067626744 0.28041052024444 0.31538458928197 
