data_stdin
_audit_creation_method 'critic2'
_audit_creation_date 2023-8-11
_chemical_formula_sum 'C14 H10'
_cell_formula_units_Z 8
_cell_length_a        19.9846516113
_cell_length_b         5.6851334103
_cell_length_c        17.8403225246
_cell_angle_alpha        89.9999
_cell_angle_beta        70.0984
_cell_angle_gamma        90.0004
_cell_volume          1905.884218
_space_group_crystal_system monoclinic
_space_group_IT_number 15
_space_group_name_H-M_alt 'C2/c'
_space_group_name_Hall '-C 2yc'
loop_
_symmetry_equiv_pos_site_id
_symmetry_equiv_pos_as_xyz
 1 'x,y,z'
 2 '-1/2-x,-1/2-y,-z'
 3 '-1/2-x,-1/2+y,-1/2-z'
 4 '-1/2+x,-1/2-y,-1/2+z'
 5 '-1/2+x,-1/2+y,z'
 6 '-x,-y,-z'
 7 '-x,y,-1/2-z'
 8 'x,-y,-1/2+z'
loop_
_atom_site_label
_atom_site_type_symbol
_atom_site_fract_x
_atom_site_fract_y
_atom_site_fract_z
H1    H     0.15947657000526 0.86975269921563 0.28977073996634 
H2    H     0.03784702991862 0.88169749947818 0.28982938994750 
H3    H     0.25899216014108 0.87064875925997 0.29067055987109 
H4    H     0.37968180995335 0.87896811994542 0.29449450016397 
H5    H     0.95607038978396 0.21062277947173 0.35678199990741 
H6    H     0.00029197012657 0.52870372923860 0.42385242995474 
H7    H     0.09385825024129 0.70553342921144 0.46303191989119 
H8    H     0.21610385993755 0.70017026925262 0.46663675976287 
H9    H     0.33215111020109 0.51393703960137 0.43467145986320 
H10   H     0.41729698010275 0.19813163019551 0.36871442995076 
C1    C     0.12547772986766 0.01461966913309 0.31995769007634 
C2    C     0.15174595983508 0.19101709929209 0.35841689014737 
C3    C     0.22400897004292 0.18950344079115 0.35996449973398 
C4    C     0.05622767999772 0.02127102995782 0.31982124989493 
C5    C     0.10510602010176 0.37911272000022 0.39648064007596 
C6    C     0.27393895009072 0.01284614080042 0.32244139991371 
C7    C     0.24627522012377 0.37463902997251 0.40029255970710 
C8    C     0.01032781012390 0.20631400988164 0.35750105994906 
C9    C     0.03485667986929 0.38308606055185 0.39481566005795 
C10   C     0.34249014991894 0.01667103000301 0.32491452014855 
C11   C     0.13003738017706 0.56230295072271 0.43541491984200 
C12   C     0.19759618981481 0.55920303006381 0.43738502006174 
C13   C     0.31623598984220 0.37338072060260 0.40277423027522 
C14   C     0.36370638981514 0.19709164058442 0.36596595992291 
