data_stdin
_audit_creation_method 'critic2'
_audit_creation_date 2023-8-11
_chemical_formula_sum 'C14 H10'
_cell_formula_units_Z 4
_cell_length_a        16.8585051346
_cell_length_b         5.1629492026
_cell_length_c        11.9844839416
_cell_angle_alpha        90.0018
_cell_angle_beta        68.9879
_cell_angle_gamma        90.0000
_cell_volume           973.761751
_space_group_crystal_system monoclinic
_space_group_IT_number 14
_space_group_name_H-M_alt 'P2_1/c'
_space_group_name_Hall '-P 2ybc'
loop_
_symmetry_equiv_pos_site_id
_symmetry_equiv_pos_as_xyz
 1 'x,y,z'
 2 '-x,-y,-z'
 3 '-x,-1/2+y,-1/2-z'
 4 'x,-1/2-y,-1/2+z'
loop_
_atom_site_label
_atom_site_type_symbol
_atom_site_fract_x
_atom_site_fract_y
_atom_site_fract_z
H1    H     0.71076702000073 0.12009505936956 0.78628465986886 
H2    H     0.83451609036716 0.99375790977143 0.83383408967640 
H3    H     0.61253610995828 0.22606350033959 0.73852851024083 
H4    H     0.49578211986899 0.36427695993236 0.67786943019207 
H5    H     0.97262592021254 0.22730481082851 0.74241987014967 
H6    H     0.98338143990829 0.59385347994225 0.60365568035809 
H7    H     0.92145701971216 0.87667242924737 0.49598510031141 
H8    H     0.80002915030426 0.00920920942522 0.43987347985214 
H9    H     0.65486032022650 0.95534988944237 0.45225480985781 
H10   H     0.51504265012088 0.73228489993253 0.53402618983495 
C1    C     0.76963867014504 0.22774777049910 0.74580102996365 
C2    C     0.77417204015398 0.43326604944334 0.66573175036612 
C3    C     0.70282584999069 0.51122963057053 0.63233751957876 
C4    C     0.83970744985849 0.15433038966999 0.77283514962812 
C5    C     0.85324467007130 0.56676137959135 0.61417310041371 
C6    C     0.62277913997502 0.38744028027727 0.67668005978169 
C7    C     0.71368719000951 0.71973463067225 0.54969132978810 
C8    C     0.91748618982742 0.28592546929803 0.72149996972600 
C9    C     0.92360951015820 0.49010377923023 0.64421044970999 
C10   C     0.55650239990485 0.46483817063776 0.64175047995495 
C11   C     0.86082098027844 0.77568581943994 0.53249806995654 
C12   C     0.79380943979075 0.84964184910013 0.50175024029617 
C13   C     0.64511793969818 0.79574816943089 0.51527022014358 
C14   C     0.56750882030103 0.67104570978425 0.56061543970795 
