data_stdin
_audit_creation_method 'critic2'
_audit_creation_date 2023-8-11
_chemical_formula_sum 'C14 H10'
_cell_formula_units_Z 4
_cell_length_a        11.6161943500
_cell_length_b        10.6153322400
_cell_length_c         7.8478917200
_cell_angle_alpha        90.0001
_cell_angle_beta        90.0000
_cell_angle_gamma        90.0001
_cell_volume           967.721663
_space_group_crystal_system orthorhombic
_space_group_IT_number 29
_space_group_name_H-M_alt 'Pca2_1'
_space_group_name_Hall 'P 2c -2ac'
loop_
_symmetry_equiv_pos_site_id
_symmetry_equiv_pos_as_xyz
 1 'x,y,z'
 2 '-x,-y,-1/2+z'
 3 '-1/2-x,y,-1/2+z'
 4 '-1/2+x,-y,z'
loop_
_atom_site_label
_atom_site_type_symbol
_atom_site_fract_x
_atom_site_fract_y
_atom_site_fract_z
H1    H     0.63323275003652 0.29521282003213 0.94023510049525 
H2    H     0.69107106040460 0.07308414985154 0.94119867973057 
H3    H     0.57697295006080 0.47218744967765 0.95543011056244 
H4    H     0.51267627970450 0.69036008974545 0.93852572982986 
H5    H     0.55469198961812 0.90654431005443 0.84371944004642 
H6    H     0.36241287983918 0.96751850024209 0.73362533040393 
H7    H     0.22307064020737 0.12836157039727 0.64926392033124 
H8    H     0.16503182004105 0.35128941962184 0.63034706025242 
H9    H     0.20340036039900 0.57337607040873 0.67856648009831 
H10   H     0.32627315993208 0.74427487974231 0.79609423981396 
C1    C     0.57326919987933 0.22470541024297 0.89359683060360 
C2    C     0.46426501025032 0.26231131987969 0.83182420014662 
C3    C     0.42817792028490 0.39327587021501 0.82589551976288 
C4    C     0.60589853995783 0.09925672020371 0.89502653957978 
C5    C     0.38796721964543 0.16701351027069 0.77035138968397 
C6    C     0.49558262001333 0.49239645031766 0.89295814017857 
C7    C     0.31971236001067 0.42385011976212 0.75056546946870 
C8    C     0.52923626967006 0.00516835964643 0.83953342030001 
C9    C     0.42194383013769 0.03918864997417 0.77912233053875 
C10   C     0.45929734040111 0.61648836009640 0.88353801991131 
C11   C     0.27940758976612 0.20215948983321 0.69801353976482 
C12   C     0.24716428024410 0.32545149996241 0.68706991052280 
C13   C     0.28524074988595 0.55145479000735 0.73974087999609 
C14   C     0.35395598012129 0.64651391045153 0.80487672944628 
