data_stdin
_audit_creation_method 'critic2'
_audit_creation_date 2023-8-11
_chemical_formula_sum 'C14 H10'
_cell_formula_units_Z 4
_cell_length_a         9.8557797263
_cell_length_b         8.4807819000
_cell_length_c        11.5784010575
_cell_angle_alpha        90.0000
_cell_angle_beta        75.7474
_cell_angle_gamma        89.9999
_cell_volume           937.988811
_space_group_crystal_system monoclinic
_space_group_IT_number 14
_space_group_name_H-M_alt 'P2_1/c'
_space_group_name_Hall '-P 2ybc'
loop_
_symmetry_equiv_pos_site_id
_symmetry_equiv_pos_as_xyz
 1 'x,y,z'
 2 '-x,-y,-z'
 3 '-x,-1/2+y,-1/2-z'
 4 'x,-1/2-y,-1/2+z'
loop_
_atom_site_label
_atom_site_type_symbol
_atom_site_fract_x
_atom_site_fract_y
_atom_site_fract_z
H1    H     0.35732305965378 0.36712754003431 0.96333211962230 
H2    H     0.10283986985668 0.38204910014315 0.03288287984665 
H3    H     0.56508607006074 0.36184158028085 0.91726293989038 
H4    H     0.81956603018719 0.34980350959295 0.86577467974826 
H5    H     0.97501005969281 0.21776553951598 0.20374623963471 
H6    H     0.10815191960770 0.03300378053637 0.30199314011823 
H7    H     0.32842357044504 0.91403201028570 0.31734362998264 
H8    H     0.58610207026916 0.90250847051637 0.25631211973136 
H9    H     0.80807876044906 0.99416729978377 0.13413438957247 
H10   H     0.94539935035023 0.16366436953727 0.97133311033660 
C1    C     0.30486356986143 0.29438452941510 0.03834216015284 
C2    C     0.38363483042057 0.19365407988107 0.09407881979983 
C3    C     0.53551616033294 0.18677194991698 0.05840337968616 
C4    C     0.16054800009136 0.30278051040470 0.07750695998039 
C5    C     0.31012244027593 0.09725143957937 0.19047512968108 
C6    C     0.61616141033179 0.28163375026275 0.96647971018160 
C7    C     0.60741786027849 0.08257099954404 0.11987462036812 
C8    C     0.08847738004157 0.21001815994282 0.17393691015866 
C9    C     0.16263480008803 0.10797148959743 0.22866122993908 
C10   C     0.76091770029436 0.27435847027239 0.93668620969477 
C11   C     0.38651624988647 0.99106204997077 0.24701718958697 
C12   C     0.52910737962471 0.98432289008159 0.21316096004952 
C13   C     0.75539237007958 0.07640464044667 0.08726414001929 
C14   C     0.83159443996523 0.17062555039581 0.99672532007366 
