data_stdin
_audit_creation_method 'critic2'
_audit_creation_date 2023-8-11
_chemical_formula_sum 'C14 H10'
_cell_formula_units_Z 4
_cell_length_a        13.9466949569
_cell_length_b         5.8016369505
_cell_length_c        11.9002845085
_cell_angle_alpha        89.9997
_cell_angle_beta        83.4947
_cell_angle_gamma        90.0007
_cell_volume           956.695872
_space_group_crystal_system monoclinic
_space_group_IT_number 14
_space_group_name_H-M_alt 'P2_1/c'
_space_group_name_Hall '-P 2ybc'
loop_
_symmetry_equiv_pos_site_id
_symmetry_equiv_pos_as_xyz
 1 'x,y,z'
 2 '-x,-y,-z'
 3 '-1/2-x,-1/2+y,-1/2-z'
 4 '-1/2+x,-1/2-y,-1/2+z'
loop_
_atom_site_label
_atom_site_type_symbol
_atom_site_fract_x
_atom_site_fract_y
_atom_site_fract_z
H1    H     0.19437566969805 0.02116163976519 0.75416976040957 
H2    H     0.11305406021775 0.00318279951941 0.58324726032250 
H3    H     0.25100892030996 0.02935105003436 0.90125457991844 
H4    H     0.32398807989844 0.06323109002514 0.07730113040387 
H5    H     0.99333128984239 0.30492855982050 0.54444408969376 
H6    H     0.96091786972618 0.63323887042558 0.67844891991886 
H7    H     0.98928565965710 0.83459350070762 0.84963513015454 
H8    H     0.07127017971365 0.86532767923367 0.02272720995797 
H9    H     0.18046315971551 0.71365022945639 0.14788215039935 
H10   H     0.29228234001822 0.40989489028964 0.20152832029690 
C1    C     0.14335497023492 0.15599548951137 0.73917805009345 
C2    C     0.12523018976468 0.33765080938799 0.81777949001636 
C3    C     0.17131366005618 0.35204379023795 0.92115072969680 
C4    C     0.09713341016653 0.14509495928914 0.64221368015033 
C5    C     0.05893288962345 0.51386953971814 0.79366419024422 
C6    C     0.23444871984681 0.18028894041454 0.95405889021440 
C7    C     0.15157312036169 0.54648833927843 0.99368289983650 
C8    C     0.03026787024121 0.31606141055160 0.62012413026439 
C9    C     0.01198826006523 0.49815960082551 0.69465228002096 
C10   C     0.27618576995491 0.19913747041997 0.05399788958218 
C11   C     0.04053783987162 0.70358985964430 0.86988238007291 
C12   C     0.08558158986602 0.72022771035791 0.96530856982365 
C13   C     0.19630839030122 0.56352821064941 0.09408943016846 
C14   C     0.25780274030030 0.39307796919741 0.12429440970386 
