data_stdin
_audit_creation_method 'critic2'
_audit_creation_date 2023-8-11
_chemical_formula_sum 'C14 H10'
_cell_formula_units_Z 4
_cell_length_a         8.3033956308
_cell_length_b        19.0084664211
_cell_length_c         6.0993660302
_cell_angle_alpha        89.9994
_cell_angle_beta        89.9998
_cell_angle_gamma        89.9995
_cell_volume           962.692321
_space_group_crystal_system orthorhombic
_space_group_IT_number 19
_space_group_name_H-M_alt 'P2_12_12_1'
_space_group_name_Hall 'P 2ac 2ab'
loop_
_symmetry_equiv_pos_site_id
_symmetry_equiv_pos_as_xyz
 1 'x,y,z'
 2 '-x,-1/2+y,-1/2-z'
 3 '-1/2-x,-y,-1/2+z'
 4 '-1/2+x,-1/2-y,-z'
loop_
_atom_site_label
_atom_site_type_symbol
_atom_site_fract_x
_atom_site_fract_y
_atom_site_fract_z
H1    H     0.81661607975153 0.97354788981728 0.34058020937620 
H2    H     0.74481246954451 0.84915728015291 0.34314389079223 
H3    H     0.87902269971806 0.07507653012267 0.33145166075262 
H4    H     0.95978085058314 0.19816650982692 0.30897771049231 
H5    H     0.83735023053917 0.76938659021534 0.04219046055417 
H6    H     0.00032362049674 0.81824577994081 0.73510981977231 
H7    H     0.12160745023163 0.91701045024647 0.54665691010333 
H8    H     0.19133216956020 0.04287854974419 0.52820235994192 
H9    H     0.19780684014888 0.15892918009541 0.69237237945309 
H10   H     0.12461684036092 0.24154422009081 0.99361159056436 
C1    C     0.85741692990764 0.94047303978393 0.20649726000722 
C2    C     0.94800187977647 0.96990617003485 0.03319095056143 
C3    C     0.99118573047405 0.04395182989613 0.02417146948897 
C4    C     0.81762601033745 0.86967879997441 0.20919027997255 
C5    C     0.99804260944795 0.92447287978003 0.85937571038958 
C6    C     0.94873548049037 0.09228234992373 0.19044046997215 
C7    C     0.08040640953235 0.06943126976207 0.84012207076440 
C8    C     0.86936388955922 0.82494239005467 0.03931174983447 
C9    C     0.95905701028982 0.85208689016459 0.86789192924421 
C10   C     0.99501029000827 0.16221214015215 0.17859940001441 
C11   C     0.08588605048993 0.95257033009726 0.67765977023296 
C12   C     0.12487084982632 0.02218080015438 0.66784557014767 
C13   C     0.12690837051582 0.14100343003123 0.83214214933898 
C14   C     0.08624864961905 0.18679793007805 0.99964762021744 
