data_stdin
_audit_creation_method 'critic2'
_audit_creation_date 2023-8-11
_chemical_formula_sum 'C14 H10'
_cell_formula_units_Z 8
_cell_length_a         8.3329224000
_cell_length_b        18.9904465601
_cell_length_c        11.9605910614
_cell_angle_alpha        89.9990
_cell_angle_beta        90.0001
_cell_angle_gamma        89.9999
_cell_volume          1892.714706
_space_group_crystal_system orthorhombic
_space_group_IT_number 61
_space_group_name_H-M_alt 'Pbca'
_space_group_name_Hall '-P 2ac 2ab'
loop_
_symmetry_equiv_pos_site_id
_symmetry_equiv_pos_as_xyz
 1 'x,y,z'
 2 '-x,-y,-z'
 3 '-1/2-x,-y,-1/2+z'
 4 '-1/2+x,y,-1/2-z'
 5 '-1/2+x,-1/2-y,-z'
 6 '-1/2-x,-1/2+y,z'
 7 '-x,-1/2+y,-1/2-z'
 8 'x,-1/2-y,-1/2+z'
loop_
_atom_site_label
_atom_site_type_symbol
_atom_site_fract_x
_atom_site_fract_y
_atom_site_fract_z
H1    H     0.70041700051198 0.80225718986796 0.57396514989075 
H2    H     0.70814105969857 0.93045961006399 0.56421328968260 
H3    H     0.70035510029186 0.69715467994755 0.57390438985594 
H4    H     0.70820298947375 0.56895067988665 0.56388004983075 
H5    H     0.58673437957646 0.99411923999068 0.40231616002991 
H6    H     0.45445905956410 0.92571993974795 0.25000597982204 
H7    H     0.37375266051500 0.81481421978600 0.16773892988866 
H8    H     0.37381945026508 0.68485438023352 0.16761428981630 
H9    H     0.45450001952679 0.57389807009555 0.24970025021749 
H10   H     0.58682487999095 0.50540530987927 0.40189069966287 
C1    C     0.64601787015567 0.82827048975240 0.50250767038248 
C2    C     0.57419115945717 0.78800601984846 0.41662424975654 
C3    C     0.57417238012212 0.71150415008310 0.41656872036660 
C4    C     0.65043915954407 0.90109827985993 0.49714842016690 
C5    C     0.50353311943961 0.82453094007605 0.32446371994114 
C6    C     0.64597478944653 0.67118485988592 0.50239856978383 
C7    C     0.50352954023067 0.67503950979794 0.32434381032831 
C8    C     0.58225051945963 0.93686810976441 0.40563206003522 
C9    C     0.50917682993361 0.89895456023313 0.32104883959537 
C10   C     0.65044990038731 0.59836310008178 0.49689456018513 
C11   C     0.42910579981299 0.78573228025514 0.23601433009088 
C12   C     0.42912152951076 0.71389485007920 0.23595213039819 
C13   C     0.50919504987900 0.60061810006496 0.32079613027884 
C14   C     0.58230193055722 0.56265263001295 0.40530312991378 
