data_stdin
_audit_creation_method 'critic2'
_audit_creation_date 2023-8-11
_chemical_formula_sum 'C14 H10'
_cell_formula_units_Z 2
_cell_length_a         8.2383674042
_cell_length_b         5.7063382100
_cell_length_c        10.4178373943
_cell_angle_alpha        90.0000
_cell_angle_beta        94.8143
_cell_angle_gamma        90.0000
_cell_volume           488.024146
_space_group_crystal_system monoclinic
_space_group_IT_number 7
_space_group_name_H-M_alt 'Pc'
_space_group_name_Hall 'P -2yc'
loop_
_symmetry_equiv_pos_site_id
_symmetry_equiv_pos_as_xyz
 1 'x,y,z'
 2 'x,-y,-1/2+z'
loop_
_atom_site_label
_atom_site_type_symbol
_atom_site_fract_x
_atom_site_fract_y
_atom_site_fract_z
H1    H     0.13216086953248 0.35233854968482 0.96076882018876 
H2    H     0.37986861015996 0.31794774980233 0.85020366003128 
H3    H     0.93398727966504 0.38398824031117 0.05919436957490 
H4    H     0.69464027991503 0.43704244084129 0.17962149975542 
H5    H     0.60287749989247 0.61698508046760 0.88614130015840 
H6    H     0.56781781969525 0.95183924029526 0.03232495960563 
H7    H     0.40995941042042 0.16479626041053 0.18041055999539 
H8    H     0.16457667944005 0.20776075981468 0.29748348021675 
H9    H     0.90049673995774 0.07023586019849 0.35035299042925 
H10   H     0.67412784052409 0.78091850062972 0.32642945964362 
C1    C     0.22601431937179 0.48502351057924 0.97823547964275 
C2    C     0.20343660997822 0.67273220001100 0.06345236970866 
C3    C     0.05868135002578 0.69781580953050 0.13300434003850 
C4    C     0.36698091988102 0.46512885083177 0.91507996965386 
C5    C     0.32988441045153 0.84420613992550 0.08189000985501 
C6    C     0.92874667992381 0.53508962000209 0.12234318035576 
C7    C     0.04664017999802 0.89348269961582 0.21741017015201 
C8    C     0.49133486014258 0.63358400037299 0.93445307991747 
C9    C     0.47210653042790 0.82072908984960 0.01604464043408 
C10   C     0.79346768034631 0.56394100041747 0.19118348044875 
C11   C     0.31224822967005 0.03631204987710 0.16776957984254 
C12   C     0.17634161993150 0.06031358983658 0.23274017027735 
C13   C     0.90690036971183 0.91956852932570 0.28654886995334 
C14   C     0.78174884941544 0.75762346023251 0.27377641013862 
