data_stdin
_audit_creation_method 'critic2'
_audit_creation_date 2023-8-11
_chemical_formula_sum 'C14 H10'
_cell_formula_units_Z 4
_cell_length_a         3.8861841111
_cell_length_b        12.0391521793
_cell_length_c        19.6476648628
_cell_angle_alpha        89.9971
_cell_angle_beta        84.7241
_cell_angle_gamma        90.0010
_cell_volume           915.348280
_space_group_crystal_system monoclinic
_space_group_IT_number 14
_space_group_name_H-M_alt 'P2_1/c'
_space_group_name_Hall '-P 2ybc'
loop_
_symmetry_equiv_pos_site_id
_symmetry_equiv_pos_as_xyz
 1 'x,y,z'
 2 '-x,-y,-z'
 3 '-x,-1/2+y,-1/2-z'
 4 'x,-1/2-y,-1/2+z'
loop_
_atom_site_label
_atom_site_type_symbol
_atom_site_fract_x
_atom_site_fract_y
_atom_site_fract_z
H1    H     0.88403638933717 0.88289397838710 0.85622022640958 
H2    H     0.76462817751067 0.95337253222193 0.97267305596833 
H3    H     0.97146820824184 0.82271860521479 0.76224472420334 
H4    H     0.05801933465707 0.74542982298499 0.64700951008960 
H5    H     0.45166563091673 0.83606059113473 0.06303278749911 
H6    H     0.26158252925949 0.64625680489595 0.03431781900964 
H7    H     0.22415514536883 0.49571515233634 0.95275840635082 
H8    H     0.33531490059102 0.42016728905957 0.83597402707409 
H9    H     0.55349636005287 0.44256380216643 0.71682209877532 
H10   H     0.84771050709457 0.55448578366753 0.62284475017566 
C1    C     0.74528450834787 0.83025016657907 0.89435932281643 
C2    C     0.64013086706505 0.72272683149164 0.87638951440998 
C3    C     0.70427348391107 0.67852589541007 0.80765296380055 
C4    C     0.67848359605331 0.87034146243126 0.96023516027592 
C5    C     0.46336096925788 0.65558554873990 0.92838105997790 
C6    C     0.87524789141703 0.73970902131102 0.75321288691886 
C7    C     0.58992835122916 0.56880514595934 0.79383122543344 
C8    C     0.50266327282894 0.80422418572927 0.01122998657841 
C9    C     0.39762209084466 0.69846388949660 0.99531138921435 
C10   C     0.92573994498307 0.69612085927184 0.68787812624964 
C11   C     0.35637335210054 0.54573365261643 0.91219527364683 
C12   C     0.41781164094140 0.50394543882896 0.84773115860215 
C13   C     0.64593269111634 0.52590190705472 0.72676468813608 
C14   C     0.80948750958578 0.58843672720370 0.67435566422940 
