data_stdin
_audit_creation_method 'critic2'
_audit_creation_date 2023-8-11
_chemical_formula_sum 'C14 H10'
_cell_formula_units_Z 4
_cell_length_a         5.2421788512
_cell_length_b         6.4656490008
_cell_length_c        28.6055955509
_cell_angle_alpha        89.9988
_cell_angle_beta        78.5139
_cell_angle_gamma        90.0013
_cell_volume           950.143312
_space_group_crystal_system monoclinic
_space_group_IT_number 14
_space_group_name_H-M_alt 'P2_1/c'
_space_group_name_Hall '-P 2ybc'
loop_
_symmetry_equiv_pos_site_id
_symmetry_equiv_pos_as_xyz
 1 'x,y,z'
 2 '-x,-y,-z'
 3 '-x,-1/2+y,-1/2-z'
 4 'x,-1/2-y,-1/2+z'
loop_
_atom_site_label
_atom_site_type_symbol
_atom_site_fract_x
_atom_site_fract_y
_atom_site_fract_z
H1    H     0.79064631954647 0.91391385041606 0.37026294008030 
H2    H     0.04440875055900 0.91837546010507 0.43360520986189 
H3    H     0.59604984955919 0.92532900022028 0.31695822017029 
H4    H     0.32953146031266 0.93924818068250 0.25628114013115 
H5    H     0.02704215971211 0.22154108930103 0.48751385014037 
H6    H     0.74943342971497 0.52357581926077 0.47718059002996 
H7    H     0.45340954068278 0.69883512997773 0.43517132016930 
H8    H     0.18914294899118 0.70273017054694 0.37238563010702 
H9    H     0.02419999987911 0.53163016046571 0.30937224007297 
H10   H     0.02934003935558 0.23844547067022 0.25319449002833 
C1    C     0.77874128064037 0.04822485948142 0.39345075999652 
C2    C     0.62018455978373 0.21751267978778 0.38646057016260 
C3    C     0.46832314986213 0.22153239013075 0.34918044995327 
C4    C     0.92129408016925 0.04970475942576 0.42931391010094 
C5    C     0.61096460025143 0.39158375945305 0.41753621015748 
C6    C     0.47147571051276 0.05904929942530 0.31604426993531 
C7    C     0.30810225082977 0.39705990041293 0.34543983994423 
C8    C     0.91143822005377 0.22109424024623 0.45986143989844 
C9    C     0.75826387954136 0.38924889939155 0.45392626000581 
C10   C     0.31830061042350 0.06561948974792 0.28177064017303 
C11   C     0.45436479942409 0.56711461008153 0.41136292007661 
C12   C     0.30848253060708 0.56914438024523 0.37686306983986 
C13   C     0.15053717981715 0.39885593996035 0.31071851003440 
C14   C     0.15353767084687 0.23545978979216 0.27946316006960 
