data_stdin
_audit_creation_method 'critic2'
_audit_creation_date 2023-8-11
_chemical_formula_sum 'C14 H10'
_cell_formula_units_Z 4
_cell_length_a        11.4115512100
_cell_length_b         6.1508980102
_cell_length_c        13.7154943200
_cell_angle_alpha        90.0004
_cell_angle_beta        90.0000
_cell_angle_gamma        90.0002
_cell_volume           962.708207
_space_group_crystal_system orthorhombic
_space_group_IT_number 33
_space_group_name_H-M_alt 'Pna2_1'
_space_group_name_Hall 'P 2c -2n'
loop_
_symmetry_equiv_pos_site_id
_symmetry_equiv_pos_as_xyz
 1 'x,y,z'
 2 '-x,-y,-1/2+z'
 3 '-1/2-x,-1/2+y,-1/2+z'
 4 '-1/2+x,-1/2-y,z'
loop_
_atom_site_label
_atom_site_type_symbol
_atom_site_fract_x
_atom_site_fract_y
_atom_site_fract_z
H1    H     0.58508306972510 0.92499962986288 0.00329614979255 
H2    H     0.45689499969899 0.19551460010918 0.92761972968123 
H3    H     0.68497832967110 0.70450582940295 0.07053143992534 
H4    H     0.81926956025516 0.45474379075851 0.15341515029337 
H5    H     0.38054460024074 0.50932867947802 0.02433846993438 
H6    H     0.43814733018667 0.55029713957285 0.19735796015230 
H7    H     0.54388455993033 0.42658556920111 0.33971666985672 
H8    H     0.67907042977011 0.16718933950203 0.41969457016205 
H9    H     0.80129728974740 0.84216010941771 0.41413103990992 
H10   H     0.87965075996370 0.52184806948326 0.32478078974620 
C1    C     0.55420876009927 0.06111590079033 0.04695589029484 
C2    C     0.58832177965134 0.07957932048974 0.14569880983711 
C3    C     0.66590442998587 0.92495362062834 0.19304620019317 
C4    C     0.48151453978075 0.21374730943705 0.00379700994061 
C5    C     0.54477704999646 0.26029572935568 0.20022414036388 
C6    C     0.71109825981902 0.73946293014965 0.14517059004184 
C7    C     0.69910333039722 0.96076907963935 0.29223154035977 
C8    C     0.43883494022648 0.39104412934892 0.05800869993777 
C9    C     0.47015299968034 0.41326956928047 0.15485617024680 
C10   C     0.78660495019848 0.59728376939392 0.19170333983219 
C11   C     0.57823136022538 0.28687715074052 0.30010407991462 
C12   C     0.65311766010627 0.14439704935155 0.34388401004006 
C13   C     0.77644263976045 0.81325624034266 0.33847232036039 
C14   C     0.82003653973979 0.63472619948794 0.28905102000145 
