data_stdin
_audit_creation_method 'critic2'
_audit_creation_date 2023-8-11
_chemical_formula_sum 'C14 H10'
_cell_formula_units_Z 4
_cell_length_a        14.2540169689
_cell_length_b         5.4274181814
_cell_length_c        12.0494379219
_cell_angle_alpha        90.0009
_cell_angle_beta        90.0002
_cell_angle_gamma        90.0012
_cell_volume           932.174772
_space_group_crystal_system orthorhombic
_space_group_IT_number 33
_space_group_name_H-M_alt 'Pna2_1'
_space_group_name_Hall 'P 2c -2n'
loop_
_symmetry_equiv_pos_site_id
_symmetry_equiv_pos_as_xyz
 1 'x,y,z'
 2 '-x,-y,-1/2+z'
 3 '-1/2-x,-1/2+y,-1/2+z'
 4 '-1/2+x,-1/2-y,z'
loop_
_atom_site_label
_atom_site_type_symbol
_atom_site_fract_x
_atom_site_fract_y
_atom_site_fract_z
H1    H     0.32445615022047 0.45470179075881 0.00469830975352 
H2    H     0.21077531990826 0.78689444942232 0.03981131004343 
H3    H     0.41611874988605 0.18537313982624 0.97061270008148 
H4    H     0.54133323990871 0.89044388003603 0.92960193010851 
H5    H     0.16967019029361 0.08576444047915 0.89032874026850 
H6    H     0.24475512000665 0.05110046945219 0.70647449964607 
H7    H     0.35355929023288 0.84798233967360 0.57879007984333 
H8    H     0.47415453984201 0.53487259957037 0.54157822987945 
H9    H     0.57426664967363 0.19947710949879 0.60331903008676 
H10   H     0.62265448996807 0.89615662054231 0.74719582012643 
C1    C     0.30805785012696 0.58397262057813 0.93842234010526 
C2    C     0.35306612016607 0.56071822996312 0.83439088974581 
C3    C     0.42395276984788 0.37485047965564 0.81208575027845 
C4    C     0.24371253001268 0.77012689987937 0.95859675990758 
C5    C     0.32884437972743 0.73295039000194 0.74925411018927 
C6    C     0.45136337965635 0.19547177949326 0.89072097025822 
C7    C     0.46876684977380 0.37166584921408 0.70605303977657 
C8    C     0.22030865992570 0.93968491064197 0.87467130961419 
C9    C     0.26215041992503 0.91945027976985 0.77157564978824 
C10   C     0.52165120017944 0.02693490924624 0.86764493022953 
C11   C     0.37335629968367 0.71669380030033 0.64308274996732 
C12   C     0.44047118966881 0.54362304077712 0.62261996998330 
C13   C     0.54046007014841 0.19794341088502 0.68449814987293 
C14   C     0.56740975967853 0.02917257009661 0.76418332988869 
