data_stdin
_audit_creation_method 'critic2'
_audit_creation_date 2023-8-11
_chemical_formula_sum 'C14 H10'
_cell_formula_units_Z 8
_cell_length_a        25.3706878382
_cell_length_b         4.5894562545
_cell_length_c        15.9518476947
_cell_angle_alpha        90.0023
_cell_angle_beta        86.0784
_cell_angle_gamma        89.9964
_cell_volume          1853.046824
_space_group_crystal_system monoclinic
_space_group_IT_number 15
_space_group_name_H-M_alt 'C2/c'
_space_group_name_Hall '-C 2yc'
loop_
_symmetry_equiv_pos_site_id
_symmetry_equiv_pos_as_xyz
 1 'x,y,z'
 2 '-1/2-x,-1/2-y,-z'
 3 '-1/2-x,-1/2+y,-1/2-z'
 4 'x,-y,-1/2+z'
 5 '-1/2+x,-1/2+y,z'
 6 '-x,-y,-z'
 7 '-x,y,-1/2-z'
 8 '-1/2+x,-1/2-y,-1/2+z'
loop_
_atom_site_label
_atom_site_type_symbol
_atom_site_fract_x
_atom_site_fract_y
_atom_site_fract_z
H1    H     0.18754231015182 0.83003228915984 0.44355347020321 
H2    H     0.14613893984789 0.19374709004672 0.35665639969388 
H3    H     0.22128956991894 0.55073272077943 0.52004821030749 
H4    H     0.25966229986949 0.20663135097342 0.61609986983329 
H5    H     0.06091718995823 0.42648882058407 0.40661403986115 
H6    H     0.01642714002469 0.27792065987320 0.54312965999580 
H7    H     0.01230837011398 0.98334178080506 0.66877366975128 
H8    H     0.05185724982076 0.61888702936960 0.76027203020708 
H9    H     0.12393283018654 0.29667281071832 0.79083772979887 
H10   H     0.21189206010262 0.07741072968185 0.75237221011152 
C1    C     0.15019240003183 0.92663195967945 0.46664073000984 
C2    C     0.12638299003897 0.84215764937465 0.54556583975964 
C3    C     0.15015844003007 0.63336625899929 0.59999408000503 
C4    C     0.12690872019375 0.13136270093949 0.41713785980319 
C5    C     0.07679957008012 0.97035380977575 0.57233511000280 
C6    C     0.19967733980022 0.50108259938496 0.57954996014983 
C7    C     0.12276085005225 0.55686542942628 0.67805867001844 
C8    C     0.07859360994524 0.26121661898428 0.44480042023235 
C9    C     0.05396960000289 0.18045271042170 0.52113531969068 
C10   C     0.22148310982700 0.30577485012977 0.63360596007364 
C11   C     0.05043443005876 0.88422251928293 0.65054544004266 
C12   C     0.07233469982383 0.68415432950812 0.70096235004037 
C13   C     0.14565966006850 0.35570102064468 0.73200305983901 
C14   C     0.19441981012198 0.23210343051826 0.71059109995092 
