data_stdin
_audit_creation_method 'critic2'
_audit_creation_date 2023-8-11
_chemical_formula_sum 'C14 H10'
_cell_formula_units_Z 4
_cell_length_a         4.6138207934
_cell_length_b        15.9062505647
_cell_length_c        12.7463336635
_cell_angle_alpha        90.0001
_cell_angle_beta        80.3639
_cell_angle_gamma        90.0038
_cell_volume           922.237192
_space_group_crystal_system monoclinic
_space_group_IT_number 14
_space_group_name_H-M_alt 'P2_1/c'
_space_group_name_Hall '-P 2ybc'
loop_
_symmetry_equiv_pos_site_id
_symmetry_equiv_pos_as_xyz
 1 'x,y,z'
 2 '-x,-y,-z'
 3 '-x,-1/2+y,-1/2-z'
 4 'x,-1/2-y,-1/2+z'
loop_
_atom_site_label
_atom_site_type_symbol
_atom_site_fract_x
_atom_site_fract_y
_atom_site_fract_z
H1    H     0.21243616060565 0.50926146987233 0.55768362034765 
H2    H     0.84152058934017 0.39968979996294 0.60512412967772 
H3    H     0.49762977023729 0.60394312986806 0.52237391014306 
H4    H     0.87104245962943 0.71454706021678 0.48716535999330 
H5    H     0.56903692964768 0.38790084011455 0.79074659966057 
H6    H     0.68461342057896 0.48623433993013 0.92934838004341 
H7    H     0.96619833941541 0.60139895010397 0.98470461007652 
H8    H     0.35641580082287 0.70916817017166 0.94469994960671 
H9    H     0.72554835930103 0.78182378996378 0.81817365014267 
H10   H     0.99297803091823 0.80320358019628 0.63567733014129 
C1    C     0.10058616931304 0.50496558969663 0.63965300014977 
C2    C     0.17093663934774 0.56194848021854 0.71667198992818 
C3    C     0.39063556927457 0.62750518973710 0.69218473035544 
C4    C     0.89016255070598 0.44298806027055 0.66610026960104 
C5    C     0.01840012095388 0.55371418000976 0.82321156988380 
C6    C     0.54452773104628 0.64212378008423 0.58830013977060 
C7    C     0.45636518894611 0.68003468001970 0.77599798021356 
C8    C     0.73704107011116 0.43596558008284 0.77089836974378 
C9    C     0.80128229957716 0.49079824970873 0.84788364011643 
C10   C     0.75554379097403 0.70456955991680 0.56789681020521 
C11   C     0.08716654936650 0.60888081992350 0.90417921026828 
C12   C     0.30037700995224 0.66875276019742 0.88191956962536 
C13   C     0.67475297958247 0.74283414998871 0.75335453038143 
C14   C     0.82364694008309 0.75502655030159 0.65107447029239 
