data_stdin
_audit_creation_method 'critic2'
_audit_creation_date 2023-8-11
_chemical_formula_sum 'C14 H10'
_cell_formula_units_Z 4
_cell_length_a        12.3255482585
_cell_length_b         5.6410787511
_cell_length_c        19.8225468038
_cell_angle_alpha        90.0015
_cell_angle_beta        43.2419
_cell_angle_gamma        90.0012
_cell_volume           944.211236
_space_group_crystal_system monoclinic
_space_group_IT_number 14
_space_group_name_H-M_alt 'P2_1/c'
_space_group_name_Hall '-P 2ybc'
loop_
_symmetry_equiv_pos_site_id
_symmetry_equiv_pos_as_xyz
 1 'x,y,z'
 2 '-x,-y,-z'
 3 '-x,-1/2+y,-1/2-z'
 4 'x,-1/2-y,-1/2+z'
loop_
_atom_site_label
_atom_site_type_symbol
_atom_site_fract_x
_atom_site_fract_y
_atom_site_fract_z
H1    H     0.40821834976800 0.85769015040169 0.49708327007995 
H2    H     0.41615445039720 0.80966895043104 0.61591999997447 
H3    H     0.42276502033087 0.86388383027279 0.38908208980498 
H4    H     0.41648493987066 0.87914826998339 0.26914344009775 
H5    H     0.28692314983279 0.46210558934097 0.72959097027974 
H6    H     0.14576525017134 0.16413492944284 0.72285759983841 
H7    H     0.05867326995163 0.02078642921972 0.65387638021401 
H8    H     0.05171293028659 0.05225432996513 0.53269594976831 
H9    H     0.12217317050838 0.25531034014450 0.39735070974366 
H10   H     0.26007352999830 0.57867299010266 0.27437575977315 
C1    C     0.35053166954318 0.70478201032831 0.54570613013885 
C2    C     0.27572939947689 0.53493299966963 0.53798493023600 
C3    C     0.27591304994039 0.54926491996559 0.46468503973838 
C4    C     0.35402906008338 0.67905365964230 0.61350823018290 
C5    C     0.19867158976513 0.33927745080219 0.60479799003284 
C6    C     0.35623825980515 0.72898786963714 0.39221115016249 
C7    C     0.19281055974949 0.37310037027808 0.46446746003484 
C8    C     0.28175733964443 0.48267228915360 0.67737616033015 
C9    C     0.20422148924203 0.31637522015206 0.67333246032938 
C10   C     0.35249299003739 0.73842436986126 0.32404608025227 
C11   C     0.11751802006870 0.16662378982902 0.60151321986528 
C12   C     0.11371582991534 0.18425434016810 0.53470824018522 
C13   C     0.18919460946033 0.38782582964736 0.39496360018952 
C14   C     0.26667290066193 0.56808123047930 0.32611305965997 
