data_stdin
_audit_creation_method 'critic2'
_audit_creation_date 2023-8-11
_chemical_formula_sum 'C14 H10'
_cell_formula_units_Z 4
_cell_length_a        11.9264632801
_cell_length_b         5.6919911112
_cell_length_c        14.1392915701
_cell_angle_alpha        90.0009
_cell_angle_beta        89.9999
_cell_angle_gamma        89.9989
_cell_volume           959.850375
_space_group_crystal_system orthorhombic
_space_group_IT_number 29
_space_group_name_H-M_alt 'Pca2_1'
_space_group_name_Hall 'P 2c -2ac'
loop_
_symmetry_equiv_pos_site_id
_symmetry_equiv_pos_as_xyz
 1 'x,y,z'
 2 '-x,-y,-1/2+z'
 3 '-1/2-x,y,-1/2+z'
 4 '-1/2+x,-y,z'
loop_
_atom_site_label
_atom_site_type_symbol
_atom_site_fract_x
_atom_site_fract_y
_atom_site_fract_z
H1    H     0.85144021014693 0.29899154952334 0.99967579019169 
H2    H     0.99318238033377 0.24637041976503 0.12339327988328 
H3    H     0.74131123029067 0.34475576955787 0.89379555018512 
H4    H     0.60930580031329 0.41339588971149 0.76513240985964 
H5    H     0.14481730033339 0.54136611936644 0.14565544986073 
H6    H     0.15312200978642 0.89232553080660 0.03953780005322 
H7    H     0.08803507036034 0.10855297018925 0.90291621004785 
H8    H     0.95110335000005 0.16816041939105 0.77488030029633 
H9    H     0.78233612021635 0.05194119921965 0.69137531024725 
H10   H     0.62804411960656 0.76743239974314 0.66156166011106 
C1    C     0.91719805973623 0.42979753919084 0.00726124014841 
C2    C     0.92116595038973 0.62352845929520 0.94475023033199 
C3    C     0.84100753024385 0.65767584081990 0.86850276975686 
C4    C     0.99682566039025 0.40003864916990 0.07758731989998 
C5    C     0.00936757033782 0.79080231078038 0.95690190024991 
C6    C     0.75199508033706 0.50010364954684 0.85016962995707 
C7    C     0.85214279979214 0.85851763010360 0.80846463007694 
C8    C     0.08268985015223 0.56677312069225 0.09016939012504 
C9    C     0.08778810002327 0.75996298043362 0.03092549031236 
C10   C     0.67684836023075 0.53863449915700 0.77705374033684 
C11   C     0.01910248966484 0.98534073080854 0.89330799966744 
C12   C     0.94340412961740 0.01818354082243 0.82226043973129 
C13   C     0.77347352987763 0.89559637924279 0.73507307983910 
C14   C     0.68724825017042 0.73840610067279 0.71896380969862 
