data_stdin
_audit_creation_method 'critic2'
_audit_creation_date 2023-8-11
_chemical_formula_sum 'C14 H10'
_cell_formula_units_Z 4
_cell_length_a        15.0374099535
_cell_length_b         6.5267116801
_cell_length_c        10.7731199006
_cell_angle_alpha        89.9999
_cell_angle_beta        65.4462
_cell_angle_gamma        89.9997
_cell_volume           961.713883
_space_group_crystal_system monoclinic
_space_group_IT_number 14
_space_group_name_H-M_alt 'P2_1/c'
_space_group_name_Hall '-P 2ybc'
loop_
_symmetry_equiv_pos_site_id
_symmetry_equiv_pos_as_xyz
 1 'x,y,z'
 2 '-x,-y,-z'
 3 '-x,-1/2+y,-1/2-z'
 4 'x,-1/2-y,-1/2+z'
loop_
_atom_site_label
_atom_site_type_symbol
_atom_site_fract_x
_atom_site_fract_y
_atom_site_fract_z
H1    H     0.13235130983861 0.29295070980665 0.13844970006837 
H2    H     0.21523040024768 0.53460442994308 0.95206169976081 
H3    H     0.06233814011484 0.07554328054120 0.27394157985031 
H4    H     0.98746533972389 0.82065327991639 0.45415446045014 
H5    H     0.38393694014758 0.46595630952364 0.78047837965154 
H6    H     0.47285809988803 0.15616312051469 0.80377062009877 
H7    H     0.47778948009146 0.84094696963088 0.92341726011337 
H8    H     0.39665597021818 0.58895100979862 0.10688678992080 
H9    H     0.25462494994525 0.47244105038875 0.30342122027259 
H10   H     0.08375566008837 0.51838559981054 0.47222077970626 
C1    C     0.20608036966522 0.25826180003298 0.06440575021304 
C2    C     0.25289092958046 0.07741366065524 0.07818024033694 
C3    C     0.20459118997944 0.92694469989385 0.18423608013949 
C4    C     0.25255318015512 0.39545952997589 0.95936318966095 
C5    C     0.35162754999548 0.04258372962539 0.98292199964829 
C6    C     0.10592274000507 0.94548085933975 0.27925819968374 
C7    C     0.25831099026974 0.75166089954384 0.19382046989033 
C8    C     0.34881736984600 0.35769378005482 0.86346029045772 
C9    C     0.39775981990720 0.18518989956320 0.87623880001077 
C10   C     0.06303972984236 0.80068159031572 0.38090719024312 
C11   C     0.40222823000903 0.86371381020006 0.99606114017145 
C12   C     0.35770052033657 0.72489045048240 0.09778242985965 
C13   C     0.21281024981344 0.60544922946287 0.29784132019284 
C14   C     0.11692236001886 0.63011143974811 0.39102812031991 
