data_stdin
_audit_creation_method 'critic2'
_audit_creation_date 2023-8-11
_chemical_formula_sum 'C14 H10'
_cell_formula_units_Z 4
_cell_length_a        19.5733514700
_cell_length_b         6.3964499108
_cell_length_c         7.4722729100
_cell_angle_alpha        90.0000
_cell_angle_beta        90.0002
_cell_angle_gamma        90.0010
_cell_volume           935.528286
_space_group_crystal_system orthorhombic
_space_group_IT_number 29
_space_group_name_H-M_alt 'Pca2_1'
_space_group_name_Hall 'P 2c -2ac'
loop_
_symmetry_equiv_pos_site_id
_symmetry_equiv_pos_as_xyz
 1 'x,y,z'
 2 '-x,-y,-1/2+z'
 3 '-1/2-x,y,-1/2+z'
 4 '-1/2+x,-y,z'
loop_
_atom_site_label
_atom_site_type_symbol
_atom_site_fract_x
_atom_site_fract_y
_atom_site_fract_z
H1    H     0.10545844008282 0.94361216961627 0.02512299031338 
H2    H     0.98111512006164 0.94299612967711 0.00707224013332 
H3    H     0.20777811996205 0.93989558057963 0.01423347043011 
H4    H     0.33275496990410 0.95194889063988 0.00639682947170 
H5    H     0.91919575979495 0.23845056074051 0.85801382938631 
H6    H     0.98488698992209 0.54188077052559 0.74142786939322 
H7    H     0.09168926996778 0.72728491957842 0.70342716998059 
H8    H     0.21823195994669 0.73325065001108 0.71039674052709 
H9    H     0.32602926008843 0.56114276963334 0.76335048976780 
H10   H     0.39337236993701 0.26159135053808 0.88003277005524 
C1    C     0.08003790014221 0.07569665952061 0.96233572021755 
C2    C     0.11901274983005 0.24318096983353 0.89288262981275 
C3    C     0.19322911023918 0.24534695022314 0.89431916060332 
C4    C     0.00937493023616 0.07447999066482 0.95138591057449 
C5    C     0.08316430984072 0.41669460035447 0.81723105026708 
C6    C     0.23284270016750 0.07729454923007 0.95934293955133 
C7    C     0.22829038011864 0.42324120922032 0.82437291946635 
C8    C     0.97462211013472 0.24155380973756 0.86916615987574 
C9    C     0.01104567004212 0.41082546953728 0.80467844974771 
C10   C     0.30354650987403 0.08331523032429 0.95426371059347 
C11   C     0.12049413019432 0.59464496032463 0.75473210976094 
C12   C     0.19010492014552 0.59756822032678 0.75845941933274 
C13   C     0.30041633990243 0.42516379035079 0.82007132037087 
C14   C     0.33783426984596 0.25794339065016 0.88374709945774 
