data_stdin
_audit_creation_method 'critic2'
_audit_creation_date 2023-8-11
_chemical_formula_sum 'C14 H10'
_cell_formula_units_Z 4
_cell_length_a        19.3651857400
_cell_length_b         6.0037021600
_cell_length_c         8.3612809600
_cell_angle_alpha        90.0000
_cell_angle_beta        89.9999
_cell_angle_gamma        89.9999
_cell_volume           972.105998
_space_group_crystal_system orthorhombic
_space_group_IT_number 18
_space_group_name_H-M_alt 'P2_12_12'
_space_group_name_Hall 'P 2 2ab'
loop_
_symmetry_equiv_pos_site_id
_symmetry_equiv_pos_as_xyz
 1 'x,y,z'
 2 '-x,-y,z'
 3 '-1/2-x,-1/2+y,-z'
 4 '-1/2+x,-1/2-y,-z'
loop_
_atom_site_label
_atom_site_type_symbol
_atom_site_fract_x
_atom_site_fract_y
_atom_site_fract_z
H1    H     0.81799885982303 0.43464527975569 0.62579396986610 
H2    H     0.93887820005255 0.45374502043468 0.70275342988368 
H3    H     0.71796612015371 0.42940981033055 0.56488433997506 
H4    H     0.59521536979035 0.42681090954422 0.50095169002775 
H5    H     0.98365987985347 0.77588445081136 0.86279417029832 
H6    H     0.90333851003751 0.08247088974907 0.93943592058093 
H7    H     0.78965938974935 0.24932420977247 0.93948560989315 
H8    H     0.66572632009472 0.23318510019678 0.87455044968580 
H9    H     0.56775814012023 0.04501289959949 0.75648959019834 
H10   H     0.51769586025740 0.73162351965060 0.59904519039623 
C1    C     0.83554501001422 0.57777966968605 0.69424966051128 
C2    C     0.78872219018758 0.74785417944576 0.73767161033321 
C3    C     0.71574865016883 0.74034001971395 0.69722619948281 
C4    C     0.90441466018056 0.58803107003486 0.73854456052695 
C5    C     0.81460459984372 0.93374551996584 0.82604133002426 
C6    C     0.68595839007901 0.56532766080583 0.60778885975838 
C7    C     0.67173547998738 0.91703118963802 0.74942877971676 
C8    C     0.92956202999485 0.76984757941340 0.82755383012119 
C9    C     0.88515844006034 0.94072850028080 0.86954793010838 
C10   C     0.61605308988860 0.56273515973765 0.57236995025017 
C11   C     0.76876366015289 0.10873406999165 0.87306986026044 
C12   C     0.70017568003856 0.10018692952245 0.83671487012888 
C13   C     0.60034261989884 0.90927752083277 0.71397308023817 
C14   C     0.57265569013345 0.73493519978004 0.62677406942179 
