data_stdin
_audit_creation_method 'critic2'
_audit_creation_date 2023-8-11
_chemical_formula_sum 'C14 H10'
_cell_formula_units_Z 4
_cell_length_a        14.7966698625
_cell_length_b        13.7666655945
_cell_length_c         4.5920861604
_cell_angle_alpha        90.0014
_cell_angle_beta        89.9951
_cell_angle_gamma        90.0002
_cell_volume           935.411648
_space_group_crystal_system orthorhombic
_space_group_IT_number 33
_space_group_name_H-M_alt 'Pna2_1'
_space_group_name_Hall 'P 2c -2n'
loop_
_symmetry_equiv_pos_site_id
_symmetry_equiv_pos_as_xyz
 1 'x,y,z'
 2 '-x,-y,-1/2+z'
 3 '-1/2-x,-1/2+y,-1/2+z'
 4 '-1/2+x,-1/2-y,z'
loop_
_atom_site_label
_atom_site_type_symbol
_atom_site_fract_x
_atom_site_fract_y
_atom_site_fract_z
H1    H     0.52537071996135 0.69638231990084 0.00272603098103 
H2    H     0.51981872007418 0.56412868021160 0.36111383940591 
H3    H     0.52533225994926 0.80381317978924 0.70751151984249 
H4    H     0.51970468983829 0.93602670019173 0.34901413926856 
H5    H     0.37242977997495 0.49986580034250 0.53363212016541 
H6    H     0.22962911989093 0.56989265033506 0.34384748060620 
H7    H     0.14957131983619 0.68303183015123 0.03743666982901 
H8    H     0.14952716017802 0.81653958974020 0.67181580014852 
H9    H     0.22951608031179 0.92978254997548 0.36550198095221 
H10   H     0.37226991997319 0.00006403014466 0.17614492952967 
C1    C     0.45994917971812 0.66942674011208 0.07368860989535 
C2    C     0.37987016007148 0.71083315983331 0.96084686101914 
C3    C     0.37984380974495 0.78911602007201 0.74898104032341 
C4    C     0.45735891980689 0.59480575011309 0.27573479955559 
C5    C     0.29556024970771 0.67344551008842 0.06248029925175 
C6    C     0.45989528019075 0.83065570974435 0.63634827088144 
C7    C     0.29551058979778 0.82635451005658 0.64709600932335 
C8    C     0.37405969966657 0.55828404986530 0.37425192951167 
C9    C     0.29455430026252 0.59746138002667 0.26922115951182 
C10   C     0.45726064012084 0.90526528996652 0.43426968036110 
C11   C     0.21271899032832 0.71317133010360 0.95457894107588 
C12   C     0.21269463970028 0.78650476966126 0.75482789974560 
C13   C     0.29445853980667 0.90232642987694 0.44031676992230 
C14   C     0.37393878986493 0.94163631034928 0.33549122897526 
