data_stdin
_audit_creation_method 'critic2'
_audit_creation_date 2023-8-11
_chemical_formula_sum 'C14 H10'
_cell_formula_units_Z 4
_cell_length_a        11.2081608300
_cell_length_b        14.7001394803
_cell_length_c         5.8169650715
_cell_angle_alpha        89.9996
_cell_angle_beta        90.0011
_cell_angle_gamma        90.0000
_cell_volume           958.412050
_space_group_crystal_system orthorhombic
_space_group_IT_number 19
_space_group_name_H-M_alt 'P2_12_12_1'
_space_group_name_Hall 'P 2ac 2ab'
loop_
_symmetry_equiv_pos_site_id
_symmetry_equiv_pos_as_xyz
 1 'x,y,z'
 2 '-x,-1/2+y,-1/2-z'
 3 '-1/2-x,-y,-1/2+z'
 4 '-1/2+x,-1/2-y,-z'
loop_
_atom_site_label
_atom_site_type_symbol
_atom_site_fract_x
_atom_site_fract_y
_atom_site_fract_z
H1    H     0.73144574006813 0.94562016968042 0.88063709999545 
H2    H     0.88292316980034 0.82663472002605 0.85457619985357 
H3    H     0.60758313974669 0.04292702024340 0.89107562926842 
H4    H     0.44573551002825 0.15439126011747 0.90601040003208 
H5    H     0.88309040985568 0.71785628019665 0.52373316042058 
H6    H     0.73046057013298 0.73346855993332 0.21678759930112 
H7    H     0.55830127031903 0.80895755981148 0.05114745003222 
H8    H     0.40068914041502 0.92634234004313 0.07144364981765 
H9    H     0.30089765974449 0.04898029978943 0.27331357051797 
H10   H     0.28975064990701 0.15759844981479 0.60489877996093 
C1    C     0.72952566957205 0.89961705996729 0.73453795045025 
C2    C     0.64052291029850 0.90935777986625 0.56380071044104 
C3    C     0.54814937020003 0.97868262016882 0.57467886938032 
C4    C     0.81535498031320 0.83191434015093 0.72052216047042 
C5    C     0.64210347955749 0.84787460991595 0.37349246074555 
C6    C     0.54119742018477 0.04284945009956 0.75502176026833 
C7    C     0.46035874987862 0.98260714978957 0.39659762061426 
C8    C     0.81582592020190 0.77105585969368 0.53366920002599 
C9    C     0.73071497002791 0.77956469992299 0.36304725941795 
C10   C     0.44987605999780 0.10622365031824 0.76408190956007 
C11   C     0.55413536978816 0.85587868018957 0.19593310051568 
C12   C     0.46698659977578 0.92047600027614 0.20731559033783 
C13   C     0.36775771992248 0.04785320972784 0.40951891960153 
C14   C     0.36191194976641 0.10828499014444 0.59175406955536 
