data_stdin
_audit_creation_method 'critic2'
_audit_creation_date 2023-8-11
_chemical_formula_sum 'C14 H10'
_cell_formula_units_Z 4
_cell_length_a         9.0352137324
_cell_length_b         6.0988489302
_cell_length_c        18.5680345683
_cell_angle_alpha        89.9998
_cell_angle_beta        65.9908
_cell_angle_gamma        89.9996
_cell_volume           934.654978
_space_group_crystal_system monoclinic
_space_group_IT_number 14
_space_group_name_H-M_alt 'P2_1/c'
_space_group_name_Hall '-P 2ybc'
loop_
_symmetry_equiv_pos_site_id
_symmetry_equiv_pos_as_xyz
 1 'x,y,z'
 2 '-x,-y,-z'
 3 '-x,-1/2+y,-1/2-z'
 4 'x,-1/2-y,-1/2+z'
loop_
_atom_site_label
_atom_site_type_symbol
_atom_site_fract_x
_atom_site_fract_y
_atom_site_fract_z
H1    H     0.08052990952910 0.15125741966224 0.25502401991609 
H2    H     0.32751792046195 0.15426000033277 0.13426930991851 
H3    H     0.87901097041869 0.15639984984047 0.35487044000247 
H4    H     0.63329878966821 0.17915816941593 0.47576133974637 
H5    H     0.52786565011378 0.45977212036711 0.10696006017561 
H6    H     0.46911538046127 0.76979774971134 0.20207791981419 
H7    H     0.28876046038414 0.95670826988753 0.31998418999158 
H8    H     0.03643434003847 0.96933614004991 0.44094612993173 
H9    H     0.78769078955430 0.79922072036325 0.53236200003560 
H10   H     0.58598038015305 0.49812605956414 0.56743760999406 
C1    C     0.16425024994646 0.28731737993128 0.24468934972935 
C2    C     0.12803709953095 0.45959968953871 0.30013122007927 
C3    C     0.98051253003242 0.46531352962681 0.37215135983806 
C4    C     0.30513633029028 0.28809206978696 0.17619201013618 
C5    C     0.24040047934912 0.63734907994668 0.28310216028377 
C6    C     0.86225436042856 0.29774202030713 0.39306543988529 
C7    C     0.95084815968973 0.64990506927541 0.42349758000298 
C8    C     0.41676819019179 0.46131784985410 0.16056439993969 
C9    C     0.38451745017107 0.63341602023861 0.21334005990612 
C10   C     0.72266527957990 0.30997179975319 0.46196420984398 
C11   C     0.20377440010754 0.82041874971701 0.33565097992240 
C12   C     0.06474754933814 0.82648087017647 0.40265690025554 
C13   C     0.80785190041665 0.65775675956922 0.49367990013171 
C14   C     0.69529663991817 0.49018525003151 0.51313455991930 
