data_stdin
_audit_creation_method 'critic2'
_audit_creation_date 2023-8-11
_chemical_formula_sum 'C14 H10'
_cell_formula_units_Z 4
_cell_length_a         3.8860078767
_cell_length_b        12.0347885152
_cell_length_c        19.6567216101
_cell_angle_alpha        89.9994
_cell_angle_beta        95.2473
_cell_angle_gamma        89.9978
_cell_volume           915.438920
_space_group_crystal_system monoclinic
_space_group_IT_number 14
_space_group_name_H-M_alt 'P2_1/c'
_space_group_name_Hall '-P 2ybc'
loop_
_symmetry_equiv_pos_site_id
_symmetry_equiv_pos_as_xyz
 1 'x,y,z'
 2 '-x,-y,-z'
 3 '-x,-1/2+y,-1/2-z'
 4 'x,-1/2-y,-1/2+z'
loop_
_atom_site_label
_atom_site_type_symbol
_atom_site_fract_x
_atom_site_fract_y
_atom_site_fract_z
H1    H     0.88487117917262 0.88306068032765 0.14370590995774 
H2    H     0.76509774098921 0.95349246026686 0.02727550025099 
H3    H     0.97229937925539 0.82288127036872 0.23769474981233 
H4    H     0.05861408941896 0.74559591973675 0.35288048973791 
H5    H     0.45208477878074 0.83608357013273 0.93705903010608 
H6    H     0.26205266098677 0.64620735018381 0.96587615993850 
H7    H     0.22463026045623 0.49576234008059 0.04739697987875 
H8    H     0.33564839879028 0.42023844982782 0.16416338997189 
H9    H     0.55322306952467 0.44273410002681 0.28319149011027 
H10   H     0.84774568118224 0.55467971010695 0.37710576002810 
C1    C     0.74593029899873 0.83039863984612 0.10562249997240 
C2    C     0.64070718893681 0.72285495006419 0.12364230014842 
C3    C     0.70464970015064 0.67869761983412 0.19236126025834 
C4    C     0.67904568011789 0.87044233019885 0.03976942020219 
C5    C     0.46394637894748 0.65566524013377 0.07171878972573 
C6    C     0.87572472875813 0.73988906001611 0.24675155979045 
C7    C     0.59012959061587 0.56896961030480 0.20621500985779 
C8    C     0.50319592990738 0.80425971978783 0.98883880019708 
C9    C     0.39830370910045 0.69847115980071 0.00480070999591 
C10   C     0.92611357963363 0.69629398960056 0.31205966974012 
C11   C     0.35694171027649 0.54577665000743 0.08792539015757 
C12   C     0.41818734871753 0.50402653959830 0.15236653007624 
C13   C     0.64589607044738 0.52607878962336 0.27325278021179 
C14   C     0.80954545910258 0.58861803035507 0.32561448987085 
