data_stdin
_audit_creation_method 'critic2'
_audit_creation_date 2023-8-11
_chemical_formula_sum 'C14 H10'
_cell_formula_units_Z 8
_cell_length_a        19.8464430628
_cell_length_b         5.8096513917
_cell_length_c        17.4075346557
_cell_angle_alpha        89.9990
_cell_angle_beta        74.1017
_cell_angle_gamma        90.0003
_cell_volume          1930.331763
_space_group_crystal_system monoclinic
_space_group_IT_number 15
_space_group_name_H-M_alt 'C2/c'
_space_group_name_Hall '-C 2yc'
loop_
_symmetry_equiv_pos_site_id
_symmetry_equiv_pos_as_xyz
 1 'x,y,z'
 2 '-x,-y,-z'
 3 '-x,y,-1/2-z'
 4 'x,-y,-1/2+z'
 5 '-1/2+x,-1/2+y,z'
 6 '-1/2-x,-1/2-y,-z'
 7 '-1/2-x,-1/2+y,-1/2-z'
 8 '-1/2+x,-1/2-y,-1/2+z'
loop_
_atom_site_label
_atom_site_type_symbol
_atom_site_fract_x
_atom_site_fract_y
_atom_site_fract_z
H1    H     0.21750484754946 0.30619654633775 0.79035067895890 
H2    H     0.09321399423641 0.31330756140599 0.79728092158758 
H3    H     0.31838808375964 0.30254012115121 0.78877607360921 
H4    H     0.44071315614817 0.30900837703039 0.78965093666148 
H5    H     0.01582866531639 0.62778775694880 0.87169162654886 
H6    H     0.06746433085411 0.94090284374596 0.93477135612054 
H7    H     0.16719527655515 0.12203725485138 0.96450494177756 
H8    H     0.29316934801462 0.12524629598030 0.95870555126467 
H9    H     0.40742368233905 0.94550106261242 0.92202585075793 
H10   H     0.48740528640587 0.62966295404301 0.85620193907351 
C1    C     0.18554168881997 0.44619103329269 0.82223544611837 
C2    C     0.21626807165804 0.62068793856884 0.85807705949353 
C3    C     0.29011710256490 0.62133384311834 0.85534690140136 
C4    C     0.11477782771559 0.44911467556787 0.82657657349394 
C5    C     0.17241198735114 0.80329715105769 0.89845755283338 
C6    C     0.33674306402316 0.44510896194736 0.81808275944040 
C7    C     0.31698758858636 0.80579086456879 0.89247721768500 
C8    C     0.07151231669702 0.62678475946475 0.86790850800723 
C9    C     0.10016702218401 0.80123394680321 0.90300921793860 
C10   C     0.40641414163108 0.44837989314821 0.81857819493695 
C11   C     0.20188768867921 0.98503225206253 0.93427858124723 
C12   C     0.27121614193373 0.98644591086484 0.93122675358595 
C13   C     0.38834395835853 0.80565776067374 0.89190081187122 
C14   C     0.43262352945591 0.62922323948491 0.85588271783126 
