data_stdin
_audit_creation_method 'critic2'
_audit_creation_date 2023-8-11
_chemical_formula_sum 'C14 H10'
_cell_formula_units_Z 4
_cell_length_a         8.0262153788
_cell_length_b        15.4570395600
_cell_length_c         8.0966840498
_cell_angle_alpha        90.0005
_cell_angle_beta        79.0248
_cell_angle_gamma        89.9996
_cell_volume           986.114672
_space_group_crystal_system monoclinic
_space_group_IT_number 14
_space_group_name_H-M_alt 'P2_1/c'
_space_group_name_Hall '-P 2ybc'
loop_
_symmetry_equiv_pos_site_id
_symmetry_equiv_pos_as_xyz
 1 'x,y,z'
 2 '-x,-y,-z'
 3 '-x,-1/2+y,-1/2-z'
 4 'x,-1/2-y,-1/2+z'
loop_
_atom_site_label
_atom_site_type_symbol
_atom_site_fract_x
_atom_site_fract_y
_atom_site_fract_z
H1    H     0.95273249955718 0.06740223976085 0.63305215990502 
H2    H     0.94175954040169 0.18522890993696 0.43317897957130 
H3    H     0.97052383999040 0.96941274984777 0.78781975938983 
H4    H     0.00236565004790 0.84719388974587 0.96924051965322 
H5    H     0.20364972034542 0.26754511980422 0.31047559942639 
H6    H     0.47606158971532 0.23102540005557 0.39422759026087 
H7    H     0.64235115990892 0.14284239985025 0.55325775989979 
H8    H     0.66430258045741 0.01986823001174 0.74357692961789 
H9    H     0.53693462020345 0.90010712009114 0.91564935025520 
H10   H     0.28549386982162 0.81144733999033 0.03739448995992 
C1    C     0.06838293964963 0.10279853984659 0.58303462016703 
C2    C     0.22268173958570 0.07921219977975 0.63088225046399 
C3    C     0.23581942056665 0.00724427029917 0.74313742028761 
C4    C     0.06156608968368 0.16954327011344 0.47036730943080 
C5    C     0.37173739050944 0.12754921014388 0.56235144044392 
C6    C     0.09560455023610 0.95534152981330 0.81383564017594 
C7    C     0.39755567992224 0.98642845984097 0.78184941966333 
C8    C     0.20899953976831 0.21611729998589 0.40113688024404 
C9    C     0.36116474020273 0.19558052986408 0.44795980977434 
C10   C     0.11315509980410 0.88581006982735 0.91698458971667 
C11   C     0.53043495026436 0.10522066014830 0.60738478983684 
C12   C     0.54284465019122 0.03733257008724 0.71173644017949 
C13   C     0.41272762057925 0.91522425993603 0.88755727959587 
C14   C     0.27267450968933 0.86552412021588 0.95442194061528 
