data_stdin
_audit_creation_method 'critic2'
_audit_creation_date 2023-8-11
_chemical_formula_sum 'C14 H10'
_cell_formula_units_Z 2
_cell_length_a         9.5485380844
_cell_length_b         6.3768494348
_cell_length_c         7.9530435782
_cell_angle_alpha        84.7301
_cell_angle_beta        91.1795
_cell_angle_gamma        76.6602
_cell_volume           468.763769
_space_group_crystal_system triclinic
_space_group_IT_number 2
_space_group_name_H-M_alt 'P-1'
_space_group_name_Hall '-P 1'
loop_
_symmetry_equiv_pos_site_id
_symmetry_equiv_pos_as_xyz
 1 'x,y,z'
 2 '-x,-y,-z'
loop_
_atom_site_label
_atom_site_type_symbol
_atom_site_fract_x
_atom_site_fract_y
_atom_site_fract_z
H1    H     0.83603187956776 0.97209508958979 0.35847121028076 
H2    H     0.57807564018134 0.07381260927508 0.28250249002256 
H3    H     0.04807742029008 0.88716766064015 0.40743975977426 
H4    H     0.30946910964635 0.77504814970106 0.46118690956697 
H5    H     0.46070766040941 0.82198889987738 0.13908538991970 
H6    H     0.60908709996215 0.46759835954191 0.07090214959884 
H7    H     0.83895653976273 0.21391042990998 0.06183243045067 
H8    H     0.10107480035774 0.10512011002613 0.12846356951784 
H9    H     0.31816768969931 0.17514185940634 0.24890791947339 
H10   H     0.44740965962806 0.41758259064802 0.38460313039484 
C1    C     0.78801569009592 0.85954538055186 0.29600240012873 
C2    C     0.87509228996311 0.66020260022122 0.25764432061876 
C3    C     0.02930523987810 0.59690339006080 0.29589499009843 
C4    C     0.64186562995640 0.91757481965161 0.25318196037707 
C5    C     0.80768263947764 0.51790727025798 0.17432848038550 
C6    C     0.10559701949451 0.73024525080014 0.37308975960975 
C7    C     0.10918987959385 0.39341468069558 0.25022042955169 
C8    C     0.57571116029334 0.77622101082844 0.17216222984332 
C9    C     0.65804306960127 0.57902839076075 0.13429592999395 
C10   C     0.25338502043236 0.66723840012912 0.40363255024852 
C11   C     0.89250289976191 0.31709631048122 0.12877045969490 
C12   C     0.03710591056406 0.25713077951120 0.16554121051386 
C13   C     0.25958791033782 0.33117043951040 0.28492202061215 
C14   C     0.33131713992729 0.46567146948139 0.35997863033357 
