data_stdin
_audit_creation_method 'critic2'
_audit_creation_date 2023-8-11
_chemical_formula_sum 'C14 H10'
_cell_formula_units_Z 4
_cell_length_a        17.3781697501
_cell_length_b         4.8008959603
_cell_length_c        11.1381923014
_cell_angle_alpha        89.9994
_cell_angle_beta        89.9989
_cell_angle_gamma        90.0000
_cell_volume           929.268126
_space_group_crystal_system orthorhombic
_space_group_IT_number 19
_space_group_name_H-M_alt 'P2_12_12_1'
_space_group_name_Hall 'P 2ac 2ab'
loop_
_symmetry_equiv_pos_site_id
_symmetry_equiv_pos_as_xyz
 1 'x,y,z'
 2 '-1/2+x,-1/2-y,-z'
 3 '-x,-1/2+y,-1/2-z'
 4 '-1/2-x,-y,-1/2+z'
loop_
_atom_site_label
_atom_site_type_symbol
_atom_site_fract_x
_atom_site_fract_y
_atom_site_fract_z
H1    H     0.84873586017744 0.48131714075253 0.49710516024104 
H2    H     0.97542810011367 0.69503576063351 0.52719650964672 
H3    H     0.74343403977964 0.33384935970703 0.46861933023279 
H4    H     0.61449927005512 0.14086556965152 0.44666918976093 
H5    H     0.99279304987148 0.07901080962929 0.67582821027031 
H6    H     0.88101843007882 0.24291175032762 0.79540009999261 
H7    H     0.74695981991577 0.20525504991297 0.85435029986397 
H8    H     0.61882214991135 0.99299141907375 0.83277506023315 
H9    H     0.53176390996242 0.66632524007796 0.73180404042972 
H10   H     0.50737401979739 0.30284346977222 0.57770743975021 
C1    C     0.85467066001859 0.64870997088698 0.56228761027191 
C2    C     0.79001367998482 0.73759451934197 0.62916388985633 
C3    C     0.71394264991947 0.61772156916195 0.61370108970395 
C4    C     0.92642979990861 0.76765855951422 0.57949665035842 
C5    C     0.80073817015782 0.95291202913132 0.71605026964754 
C6    C     0.69798036980401 0.41114823025867 0.52679400987068 
C7    C     0.65243202978454 0.71079771896626 0.68873952021429 
C8    C     0.93649254973268 0.98337309959835 0.66367881022926 
C9    C     0.87435105017048 0.07427111981211 0.73063131998608 
C10   C     0.62496115023485 0.30007175943708 0.51417371977903 
C11   C     0.73718993975950 0.04170144934607 0.78836865013737 
C12   C     0.66626537987930 0.92345389015305 0.77625323977806 
C13   C     0.57837666975180 0.59311977904553 0.67447840957085 
C14   C     0.56470490026302 0.39078673964708 0.58873506988260 
