data_stdin
_audit_creation_method 'critic2'
_audit_creation_date 2023-8-11
_chemical_formula_sum 'C14 H10'
_cell_formula_units_Z 8
_cell_length_a        27.6409763088
_cell_length_b         5.0315626898
_cell_length_c        13.8782426675
_cell_angle_alpha        90.0013
_cell_angle_beta        77.3265
_cell_angle_gamma        89.9889
_cell_volume          1883.122935
_space_group_crystal_system monoclinic
_space_group_IT_number 15
_space_group_name_H-M_alt 'C2/c'
_space_group_name_Hall '-C 2yc'
loop_
_symmetry_equiv_pos_site_id
_symmetry_equiv_pos_as_xyz
 1 'x,y,z'
 2 '-x,-y,-z'
 3 '-x,y,-1/2-z'
 4 'x,-y,-1/2+z'
 5 '-1/2+x,-1/2+y,z'
 6 '-1/2-x,-1/2-y,-z'
 7 '-1/2-x,-1/2+y,-1/2-z'
 8 '-1/2+x,-1/2-y,-1/2+z'
loop_
_atom_site_label
_atom_site_type_symbol
_atom_site_fract_x
_atom_site_fract_y
_atom_site_fract_z
H1    H     0.47589118456307 0.76371736337824 0.48027793430768 
H2    H     0.50841527036013 0.43743192667272 0.35213082903884 
H3    H     0.44794479439285 0.01864700202464 0.58719748391875 
H4    H     0.41079502429243 0.32802604155743 0.71987743029554 
H5    H     0.45075895179688 0.12828503490789 0.29052992810188 
H6    H     0.36052225845322 0.16218499923955 0.35691624394390 
H7    H     0.28955298040279 0.36511788344633 0.46754588674761 
H8    H     0.25453853361342 0.68458362778283 0.59903013795204 
H9    H     0.26540801803971 0.03293381044334 0.71498061202828 
H10   H     0.31999842693536 0.33856903464142 0.78446923922079 
C1    C     0.44998526173828 0.63486121632439 0.45403048174406 
C2    C     0.39866979533020 0.65558933783671 0.49503832502088 
C3    C     0.37822092718589 0.84182146773505 0.57329760936230 
C4    C     0.46857508851507 0.44934036108227 0.38164357881650 
C5    C     0.36604025664567 0.48240644517664 0.45803674393714 
C6    C     0.40795026900795 0.01796986466819 0.61459605128592 
C7    C     0.32578791647286 0.84891066783913 0.61077882461618 
C8    C     0.43627834717854 0.27664780207143 0.34652064038706 
C9    C     0.38574119677437 0.29486395739580 0.38394186261605 
C10   C     0.38728734844325 0.19345580328767 0.68909971443232 
C11   C     0.31374812523417 0.49879880152209 0.49715416619007 
C12   C     0.29445523462309 0.67481805620855 0.57020689389975 
C13   C     0.30550031257464 0.02887028371564 0.68735156965285 
C14   C     0.33566138898797 0.19894218681570 0.72600723024018 
