data_stdin
_audit_creation_method 'critic2'
_audit_creation_date 2023-8-11
_chemical_formula_sum 'C14 H10'
_cell_formula_units_Z 2
_cell_length_a         8.9195926815
_cell_length_b         6.1237146900
_cell_length_c         9.7779443819
_cell_angle_alpha        90.0000
_cell_angle_beta        66.7351
_cell_angle_gamma        90.0000
_cell_volume           490.654705
_space_group_crystal_system monoclinic
_space_group_IT_number 7
_space_group_name_H-M_alt 'Pc'
_space_group_name_Hall 'P -2yc'
loop_
_symmetry_equiv_pos_site_id
_symmetry_equiv_pos_as_xyz
 1 'x,y,z'
 2 'x,-y,-1/2+z'
loop_
_atom_site_label
_atom_site_type_symbol
_atom_site_fract_x
_atom_site_fract_y
_atom_site_fract_z
H1    H     0.97956920008555 0.05788363068654 0.03802307995976 
H2    H     0.20572446958156 0.95633711956351 0.80624459053155 
H3    H     0.79386799033683 0.12568388996977 0.23337261997029 
H4    H     0.55156291930917 0.21619026014872 0.45398473032213 
H5    H     0.19739928030379 0.60735372023683 0.67610622971481 
H6    H     0.95819902079683 0.36107266023959 0.78460822950814 
H7    H     0.69402912987163 0.27456789974780 0.97602943016024 
H8    H     0.45642148982139 0.37364880038074 0.20268264984916 
H9    H     0.31495494967287 0.62690418919779 0.40218282047810 
H10   H     0.30884040976385 0.97139318030667 0.54055884973174 
C1    C     0.97323789989121 0.90410447930295 0.98472782031567 
C2    C     0.83528908003197 0.76731560983443 0.04918702025558 
C3    C     0.69649735026393 0.82326969975255 0.18502317019379 
C4    C     0.10103339041731 0.84774685079426 0.85272003990306 
C5    C     0.83167260013386 0.56783322997526 0.97444365006571 
C6    C     0.69051491965279 0.01442781920939 0.26793157967483 
C7    C     0.55827647067733 0.68056394944222 0.23713202974665 
C8    C     0.09673409974315 0.65094320943937 0.77976430992111 
C9    C     0.96394519020830 0.51307350054044 0.84028273009261 
C10   C     0.55346633982959 0.06619690994860 0.39376750955237 
C11   C     0.69289007019001 0.42703231046993 0.03360380999605 
C12   C     0.56131684003938 0.48224159048992 0.15891723053349 
C13   C     0.41968144936104 0.73688046966351 0.36577655020345 
C14   C     0.41663563974095 0.92760323059739 0.44270185003649 
