data_stdin
_audit_creation_method 'critic2'
_audit_creation_date 2023-8-11
_chemical_formula_sum 'C14 H10'
_cell_formula_units_Z 8
_cell_length_a        17.4612187725
_cell_length_b        11.3342297507
_cell_length_c        11.7938081811
_cell_angle_alpha        89.9996
_cell_angle_beta        56.3549
_cell_angle_gamma        89.9995
_cell_volume          1943.108746
_space_group_crystal_system monoclinic
_space_group_IT_number 15
_space_group_name_H-M_alt 'C2/c'
_space_group_name_Hall '-C 2yc'
loop_
_symmetry_equiv_pos_site_id
_symmetry_equiv_pos_as_xyz
 1 'x,y,z'
 2 '-1/2-x,-1/2-y,-z'
 3 '-1/2-x,-1/2+y,-1/2-z'
 4 '-1/2+x,-1/2-y,-1/2+z'
 5 '-1/2+x,-1/2+y,z'
 6 '-x,-y,-z'
 7 '-x,y,-1/2-z'
 8 'x,-y,-1/2+z'
loop_
_atom_site_label
_atom_site_type_symbol
_atom_site_fract_x
_atom_site_fract_y
_atom_site_fract_z
H1    H     0.48530877974841 0.88502452024702 0.57402166013433 
H2    H     0.42746249034145 0.71512433969553 0.51508798982258 
H3    H     0.53618914011376 0.01910648984367 0.62264999992317 
H4    H     0.60221092022356 0.17595401966510 0.68691138963514 
H5    H     0.53495166006756 0.55650030014644 0.36197363023445 
H6    H     0.70157984997647 0.57336499979707 0.26731949964623 
H7    H     0.82972465979366 0.67501176006969 0.24710881995323 
H8    H     0.89339147994277 0.84143760039244 0.30510310025973 
H9    H     0.87099254000345 0.02144494042600 0.43213361965699 
H10   H     0.76915559976408 0.17806722013424 0.59367568032327 
C1    C     0.53369762987646 0.81775117988591 0.50645041972784 
C2    C     0.62825678995054 0.82936782001378 0.45467787957410 
C3    C     0.66530411986243 0.92683372030714 0.49000977996853 
C4    C     0.50064828996975 0.72156441956227 0.47343556994084 
C5    C     0.68921639005122 0.73898548961673 0.36630196978869 
C6    C     0.60961541012537 0.01815140967106 0.57998121009477 
C7    C     0.76161126014781 0.92956875038365 0.43524763980594 
C8    C     0.56113210989881 0.63259350982398 0.38677787973171 
C9    C     0.65405481999079 0.64167674025047 0.33409930970758 
C10   C     0.64643422008101 0.10687264015124 0.61665141009795 
C11   C     0.78534333028654 0.74635395009307 0.31251823986290 
C12   C     0.82024303956901 0.83802698013311 0.34503398047286 
C13   C     0.79759128987698 0.02145287999652 0.47363669969133 
C14   C     0.74117527010347 0.10840276031918 0.56348367039875 
