data_stdin
_audit_creation_method 'critic2'
_audit_creation_date 2023-8-11
_chemical_formula_sum 'C14 H10'
_cell_formula_units_Z 4
_cell_length_a        19.7291815151
_cell_length_b         6.0719822715
_cell_length_c         8.3053835828
_cell_angle_alpha        89.9988
_cell_angle_beta        73.7715
_cell_angle_gamma        89.9990
_cell_volume           955.301760
_space_group_crystal_system monoclinic
_space_group_IT_number 9
_space_group_name_H-M_alt 'Cc'
_space_group_name_Hall 'C -2yc'
loop_
_symmetry_equiv_pos_site_id
_symmetry_equiv_pos_as_xyz
 1 'x,y,z'
 2 'x,-y,-1/2+z'
 3 '-1/2+x,-1/2+y,z'
 4 '-1/2+x,-1/2-y,-1/2+z'
loop_
_atom_site_label
_atom_site_type_symbol
_atom_site_fract_x
_atom_site_fract_y
_atom_site_fract_z
H1    H     0.01734927016182 0.35264001928260 0.02835569018844 
H2    H     0.14340726016488 0.35652533008072 0.00432503061089 
H3    H     0.91403324982509 0.36176491939943 0.04605344007927 
H4    H     0.78918013984068 0.39173009971086 0.06212742027211 
H5    H     0.19721457984903 0.66921112072507 0.12036584053570 
H6    H     0.12121614983876 0.98096740921108 0.26103801990511 
H7    H     0.00729064021303 0.15818536045561 0.35548217997584 
H8    H     0.87973833983593 0.16772646039183 0.38077096062201 
H9    H     0.77627989015576 0.01043125980075 0.32383037968514 
H10   H     0.71782775010064 0.71424919930241 0.20517297033500 
C1    C     0.03903572012545 0.49107406028667 0.08035113043696 
C2    C     0.99456921028524 0.66514564043663 0.15946814951356 
C3    C     0.91945900002919 0.67108253010320 0.17363698046712 
C4    C     0.11065348981534 0.49322497028558 0.06633929057900 
C5    C     0.02561472999440 0.84485266953628 0.22460982048890 
C6    C     0.88482264002885 0.50443064954893 0.10797460997083 
C7    C     0.87885574023258 0.85617123030475 0.25284794939746 
C8    C     0.14096862021662 0.67004968059946 0.13102484945877 
C9    C     0.09889113986335 0.84327979951544 0.20875599947386 
C10   C     0.81361874012433 0.51991559980173 0.11852226060373 
C11   C     0.98246179993717 0.02447568016364 0.30560739045647 
C12   C     0.91196868023266 0.02972524947272 0.31951396944696 
C13   C     0.80615011978412 0.86737196919053 0.26337228026526 
C14   C     0.77375166016886 0.70220697994469 0.19704944998245 
