data_stdin
_audit_creation_method 'critic2'
_audit_creation_date 2023-8-11
_chemical_formula_sum 'C14 H10'
_cell_formula_units_Z 4
_cell_length_a        10.3591960507
_cell_length_b        12.4242585700
_cell_length_c         7.4562169813
_cell_angle_alpha        89.9998
_cell_angle_beta        86.3846
_cell_angle_gamma        90.0001
_cell_volume           957.745001
_space_group_crystal_system monoclinic
_space_group_IT_number 14
_space_group_name_H-M_alt 'P2_1/c'
_space_group_name_Hall '-P 2ybc'
loop_
_symmetry_equiv_pos_site_id
_symmetry_equiv_pos_as_xyz
 1 'x,y,z'
 2 '-x,-y,-z'
 3 '-x,-1/2+y,-1/2-z'
 4 'x,-1/2-y,-1/2+z'
loop_
_atom_site_label
_atom_site_type_symbol
_atom_site_fract_x
_atom_site_fract_y
_atom_site_fract_z
H1    H     0.00362131961346 0.94810595004873 0.17180745066626 
H2    H     0.21285239049412 0.01915088989142 0.24763086956059 
H3    H     0.82973616017621 0.88909565967836 0.12826586963655 
H4    H     0.61368041982617 0.82366599969633 0.06865108060761 
H5    H     0.22583153964270 0.18383371962945 0.43809591975869 
H6    H     0.02419049006256 0.27811183975458 0.54569539001266 
H7    H     0.79062335965160 0.29642537007100 0.55751860991368 
H8    H     0.57600651955814 0.22799690992716 0.49030344998554 
H9    H     0.44102101045674 0.09428067004892 0.35237422959222 
H10   H     0.41709358041377 0.92472649000852 0.18047142944187 
C1    C     0.00608567999802 0.02145966976483 0.25100638014758 
C2    C     0.88953046019764 0.07303212960377 0.31090990979917 
C3    C     0.76277776019945 0.03196842012327 0.27287501963233 
C4    C     0.12500876008546 0.06145871034179 0.29406455953397 
C5    C     0.89771915045720 0.16874292003974 0.41578526946834 
C6    C     0.74582764990460 0.93544615017108 0.17686461041916 
C7    C     0.64976637968676 0.08968807001057 0.33708143036448 
C8    C     0.13231672034925 0.15455619007927 0.40036624944053 
C9    C     0.02018368954082 0.20725505961526 0.46002599038073 
C10   C     0.62367910005282 0.89775680987077 0.14462078971510 
C11   C     0.78196163025550 0.22367296972769 0.47791258000584 
C12   C     0.66316245042198 0.18590432976402 0.43990675945365 
C13   C     0.52612852995316 0.04972601971670 0.30114646056965 
C14   C     0.51261660967386 0.95515698971420 0.20663204978389 
