data_stdin
_audit_creation_method 'critic2'
_audit_creation_date 2023-8-11
_chemical_formula_sum 'C14 H10'
_cell_formula_units_Z 4
_cell_length_a        11.9511984342
_cell_length_b        19.6334005791
_cell_length_c         3.8978304711
_cell_angle_alpha        89.9983
_cell_angle_beta        89.9997
_cell_angle_gamma        89.9984
_cell_volume           914.597334
_space_group_crystal_system orthorhombic
_space_group_IT_number 33
_space_group_name_H-M_alt 'Pna2_1'
_space_group_name_Hall 'P 2c -2n'
loop_
_symmetry_equiv_pos_site_id
_symmetry_equiv_pos_as_xyz
 1 'x,y,z'
 2 '-x,-y,-1/2+z'
 3 '-1/2-x,-1/2+y,-1/2+z'
 4 '-1/2+x,-1/2-y,z'
loop_
_atom_site_label
_atom_site_type_symbol
_atom_site_fract_x
_atom_site_fract_y
_atom_site_fract_z
H1    H     0.50155268040308 0.90917006017348 0.96652552077711 
H2    H     0.57510074973816 0.79329582981475 0.94195430936578 
H3    H     0.43249696024729 0.00168110995812 0.95909008073663 
H4    H     0.34996365001457 0.11499620012702 0.00066973944415 
H5    H     0.46056259967475 0.69523704004773 0.14811401953561 
H6    H     0.27127004040601 0.71626516005252 0.39055799975297 
H7    H     0.12409698987234 0.79374612978303 0.56958873908754 
H8    H     0.04678602987212 0.90998191989483 0.61452604054516 
H9    H     0.06270368972065 0.03169071979322 0.52136610071088 
H10   H     0.16463531039354 0.13185297984823 0.28718633998867 
C1    C     0.44990772040708 0.86770209978403 0.06145426910105 
C2    C     0.34276327982212 0.88128376984501 0.19798580931736 
C3    C     0.29617726033856 0.94948351998221 0.21691877121815 
C4    C     0.49175666001054 0.80204128013690 0.04620547965802 
C5    C     0.27845610980560 0.82523098998329 0.32257823099526 
C6    C     0.35195792998682 0.00737492979453 0.08594562089501 
C7    C     0.18881878988630 0.95899112994206 0.37057523060525 
C8    C     0.42713686966913 0.74674968016663 0.16212359049491 
C9    C     0.32207277982626 0.75850378988569 0.29784493925467 
C10   C     0.30508251998818 0.07171181021594 0.10843360098804 
C11   C     0.17108977978442 0.83720412008657 0.47285210055442 
C12   C     0.12830116035986 0.90136650999388 0.49749035019428 
C13   C     0.14341356020129 0.02530122008547 0.39510698874647 
C14   C     0.20039703983502 0.08099568975570 0.26654000062926 
