data_stdin
_audit_creation_method 'critic2'
_audit_creation_date 2023-8-11
_chemical_formula_sum 'C14 H10'
_cell_formula_units_Z 8
_cell_length_a        26.1729521428
_cell_length_b         3.9499478817
_cell_length_c        18.5311322819
_cell_angle_alpha        89.9934
_cell_angle_beta        74.2742
_cell_angle_gamma        90.0064
_cell_volume          1844.073606
_space_group_crystal_system monoclinic
_space_group_IT_number 15
_space_group_name_H-M_alt 'C2/c'
_space_group_name_Hall '-C 2yc'
loop_
_symmetry_equiv_pos_site_id
_symmetry_equiv_pos_as_xyz
 1 'x,y,z'
 2 '-1/2-x,-1/2-y,-z'
 3 '-1/2-x,-1/2+y,-1/2-z'
 4 'x,-y,-1/2+z'
 5 '-1/2+x,-1/2+y,z'
 6 '-x,-y,-z'
 7 '-x,y,-1/2-z'
 8 '-1/2+x,-1/2-y,-1/2+z'
loop_
_atom_site_label
_atom_site_type_symbol
_atom_site_fract_x
_atom_site_fract_y
_atom_site_fract_z
H1    H     0.03403790013089 0.13123698033601 0.52335489999889 
H2    H     0.05390953012556 0.84866249050171 0.62994020987327 
H3    H     0.01994777992897 0.35109085927620 0.43419539981577 
H4    H     0.00523441002447 0.62766989927815 0.32360110974706 
H5    H     0.14760601993792 0.74568438082933 0.63140565991192 
H6    H     0.22111929000062 0.92337387991070 0.52232343021281 
H7    H     0.25279002017930 0.16422546063171 0.39772009999624 
H8    H     0.23538523014020 0.45170514898645 0.28807554992645 
H9    H     0.17372661005207 0.67901776067009 0.22309939011773 
H10   H     0.08221300011307 0.79201821066830 0.21634031026458 
C1    C     0.07527099013713 0.08437837126252 0.52168668998188 
C2    C     0.11614676016394 0.18501374099494 0.45847886999269 
C3    C     0.10589565995201 0.34917543958848 0.39375389014597 
C4    C     0.08636429986701 0.92702510046241 0.58245806998297 
C5    C     0.16968968006049 0.12133926886631 0.45908208974562 
C6    C     0.05414622984302 0.42009031027119 0.38849838014419 
C7    C     0.14965022005980 0.44425845941905 0.33241365987154 
C8    C     0.13922505017069 0.86821370928515 0.58323485978746 
C9    C     0.18002084989047 0.96533029957953 0.52232014004696 
C10   C     0.04564191006180 0.57567652971980 0.32582817990071 
C11   C     0.21227918985122 0.21800035010368 0.39603015022599 
C12   C     0.20268594005609 0.37495251932923 0.33546222027109 
C13   C     0.13995070010653 0.60438819948088 0.26918162997619 
C14   C     0.08881873995302 0.66826748108324 0.26545933005132 
