data_stdin
_audit_creation_method 'critic2'
_audit_creation_date 2023-8-11
_chemical_formula_sum 'C14 H10'
_cell_formula_units_Z 4
_cell_length_a        11.0541140871
_cell_length_b         5.0573640813
_cell_length_c        17.1583303856
_cell_angle_alpha        89.9994
_cell_angle_beta        86.8952
_cell_angle_gamma        89.9988
_cell_volume           957.822981
_space_group_crystal_system monoclinic
_space_group_IT_number 14
_space_group_name_H-M_alt 'P2_1/c'
_space_group_name_Hall '-P 2ybc'
loop_
_symmetry_equiv_pos_site_id
_symmetry_equiv_pos_as_xyz
 1 'x,y,z'
 2 '-x,-y,-z'
 3 '-x,-1/2+y,-1/2-z'
 4 'x,-1/2-y,-1/2+z'
loop_
_atom_site_label
_atom_site_type_symbol
_atom_site_fract_x
_atom_site_fract_y
_atom_site_fract_z
H1    H     0.18809842048841 0.21541928003319 0.12854667972303 
H2    H     0.29628053046156 0.35071339924990 0.00731879972969 
H3    H     0.08931887020888 0.13626051961312 0.22800644011149 
H4    H     0.98514377980639 0.03002342923010 0.35285975997368 
H5    H     0.44099985005358 0.73196439936278 0.00566561991660 
H6    H     0.47557469039531 0.97162069923613 0.12912222991778 
H7    H     0.43703418043250 0.03188446092546 0.26775391983753 
H8    H     0.33236867959534 0.90544696905355 0.39236312004949 
H9    H     0.18798556993013 0.62947312088633 0.46712898004054 
H10   H     0.03363550975628 0.27066899002272 0.47403315998887 
C1    C     0.24883270961205 0.38459287930691 0.12953467026885 
C2    C     0.26528334990230 0.51946193983758 0.20040120001146 
C3    C     0.20082931991126 0.44932348917302 0.27356657983019 
C4    C     0.31088256003721 0.45971302024265 0.06076883995914 
C5    C     0.34980123979859 0.73330350966615 0.19933525994075 
C6    C     0.11199599993334 0.24825604070026 0.27934212975827 
C7    C     0.22760719970683 0.58884938083090 0.34301111976149 
C8    C     0.39256099985806 0.67363215919130 0.05991575009943 
C9    C     0.41199290046473 0.80704245911774 0.12841259976228 
C10   C     0.05268982998945 0.18631754955140 0.35009434009995 
C11   C     0.37245352972712 0.86949609016590 0.27014612027866 
C12   C     0.31479977960492 0.79824112941278 0.33914497003921 
C13   C     0.16621290024247 0.52101640034213 0.41475932989975 
C14   C     0.08005234964860 0.32224900037619 0.41848229998888 
