data_stdin
_audit_creation_method 'critic2'
_audit_creation_date 2023-8-11
_chemical_formula_sum 'C14 H10'
_cell_formula_units_Z 4
_cell_length_a        13.3334719513
_cell_length_b         5.1820104581
_cell_length_c        16.9373124861
_cell_angle_alpha        90.0034
_cell_angle_beta        53.1918
_cell_angle_gamma        90.0011
_cell_volume           936.971059
_space_group_crystal_system monoclinic
_space_group_IT_number 14
_space_group_name_H-M_alt 'P2_1/c'
_space_group_name_Hall '-P 2ybc'
loop_
_symmetry_equiv_pos_site_id
_symmetry_equiv_pos_as_xyz
 1 'x,y,z'
 2 '-x,-y,-z'
 3 '-x,-1/2+y,-1/2-z'
 4 'x,-1/2-y,-1/2+z'
loop_
_atom_site_label
_atom_site_type_symbol
_atom_site_fract_x
_atom_site_fract_y
_atom_site_fract_z
H1    H     0.36560471990090 0.03231593048011 0.61040388032754 
H2    H     0.28250481024042 0.71332277941801 0.74219733966740 
H3    H     0.43198279027587 0.28494418045298 0.50045993976076 
H4    H     0.50995375971970 0.58633699935933 0.36379400004901 
H5    H     0.11579521019561 0.40251783035100 0.77797915964763 
H6    H     0.03502949963885 0.41900623016150 0.67978752032209 
H7    H     0.03342309009696 0.60706195092133 0.54938813980531 
H8    H     0.11332911967704 0.92197161012784 0.41488809023848 
H9    H     0.25524626999712 0.27234312922288 0.31251228017303 
H10   H     0.42433776010439 0.58216478958708 0.26803916988753 
C1    C     0.29314028004424 0.90019516966617 0.62446854966323 
C2    C     0.24928485973201 0.91362393966367 0.56655147013607 
C3    C     0.29794223037098 0.09654996972159 0.48632223987570 
C4    C     0.24635490983144 0.71959491037579 0.69916922975959 
C5    C     0.15371901024266 0.73657550972642 0.58805555997585 
C6    C     0.39283490013508 0.27709000905048 0.45971111981257 
C7    C     0.24789541024486 0.09638405914626 0.43162384991049 
C8    C     0.15290689047965 0.54464208071971 0.71936258964589 
C9    C     0.10730795020359 0.55401361933718 0.66456358015655 
C10   C     0.43694853987830 0.44869177920475 0.38274456009252 
C11   C     0.10607291014255 0.74480162952532 0.53164803979595 
C12   C     0.15090361997416 0.91785776915918 0.45690433996969 
C13   C     0.29482711982119 0.27327986979416 0.35318531983273 
C14   C     0.38820177003178 0.44678866039601 0.32860441995269 
