data_stdin
_audit_creation_method 'critic2'
_audit_creation_date 2023-8-11
_chemical_formula_sum 'C14 H10'
_cell_formula_units_Z 8
_cell_length_a        42.0902698535
_cell_length_b         5.9712181615
_cell_length_c         8.3594084362
_cell_angle_alpha        89.9933
_cell_angle_beta       109.2453
_cell_angle_gamma        89.9945
_cell_volume          1983.561269
_space_group_crystal_system triclinic
_space_group_IT_number 2
_space_group_name_H-M_alt 'P-1'
_space_group_name_Hall '-P 1'
loop_
_symmetry_equiv_pos_site_id
_symmetry_equiv_pos_as_xyz
 1 'x,y,z'
 2 '-x,-y,-z'
 3 '-1/2+x,-1/2+y,z'
 4 '-1/2-x,-1/2-y,-z'
loop_
_atom_site_label
_atom_site_type_symbol
_atom_site_fract_x
_atom_site_fract_y
_atom_site_fract_z
H1    H     0.34559453007203 0.85383297972392 0.83574745046472 
H2    H     0.65438855998494 0.85384009979576 0.66402950997935 
H3    H     0.28515032993217 0.87054436965083 0.78439577954030 
H4    H     0.71483698999451 0.87043408059161 0.71543021030577 
H5    H     0.39502497001950 0.85312130930468 0.87568922039434 
H6    H     0.60497186005878 0.85349139980392 0.62448016058773 
H7    H     0.45501323996991 0.87002279040533 0.91871064049402 
H8    H     0.54498627997962 0.87061817018110 0.58154325949510 
H9    H     0.25971806007400 0.19485984075274 0.88545911031208 
H10   H     0.74026977996665 0.19476776056078 0.61439534965678 
H11   H     0.29658967009913 0.50518430939995 0.04317653005406 
H12   H     0.70340353000421 0.50531829033159 0.45680768981348 
H13   H     0.35182555006356 0.67032199003218 0.16729772019589 
H14   H     0.64815542001734 0.67074174947067 0.33279848053070 
H15   H     0.41295798004199 0.66887710031938 0.21845075017789 
H16   H     0.58703199001877 0.66927474946749 0.28152482949842 
H17   H     0.46224501008290 0.50315761082424 0.17720072031369 
H18   H     0.53775202011065 0.50370546056925 0.32277301023216 
H19   H     0.48967825997918 0.19491382948833 0.07024271973945 
H20   H     0.51032340999750 0.19570488967590 0.43007568020013 
C1    C     0.33541510007454 0.99691599955833 0.88286003052473 
C2    C     0.66457190003555 0.99697137073910 0.61698556962925 
C3    C     0.35698232997721 0.16985253962224 0.97156812950269 
C4    C     0.64300482007378 0.17001570059129 0.52833369943568 
C5    C     0.39298964998068 0.16923562987726 0.00096973023214 
C6    C     0.60699907004261 0.16953540066208 0.49901778938316 
C7    C     0.30108073000607 0.00638999050653 0.85290995979167 
C8    C     0.69890571989595 0.00634091971296 0.64693769981107 
C9    C     0.34238124990648 0.35534073935853 0.03022583987780 
C10   C     0.65760435991873 0.35551252983934 0.46966016003355 
C11   C     0.40927159009973 0.99613375958096 0.94264898026587 
C12   C     0.59071770994851 0.99649351038662 0.55745437941752 
C13   C     0.41281941997432 0.35385331996514 0.08815814965419 
C14   C     0.58717100002544 0.35422385006909 0.41184233986758 
C15   C     0.28676633003882 0.18983447921985 0.90989194040633 
C16   C     0.71322172000141 0.18984275997751 0.58998451007192 
C17   C     0.30717898994100 0.36182873054270 0.99739921997596 
C18   C     0.69281113005459 0.36190673064713 0.50251224980211 
C19   C     0.44345380998776 0.00510138964136 0.96747435047070 
C20   C     0.55653937992203 0.00564531078013 0.53268632970798 
C21   C     0.36345106992439 0.53297819974107 0.12136439009226 
C22   C     0.63653747999539 0.53320920001791 0.37856303032613 
C23   C     0.39726876008418 0.53201418043856 0.14965599972876 
C24   C     0.60271671002388 0.53229448029529 0.35023978030509 
C25   C     0.44767167001250 0.35958788983279 0.11167554032345 
C26   C     0.55232088010057 0.36013059951508 0.38841345056716 
C27   C     0.46285984998070 0.18825410077999 0.05191046969586 
C28   C     0.53713542986731 0.18887472062574 0.44827130960160 
