data_stdin
_audit_creation_method 'critic2'
_audit_creation_date 2023-8-11
_chemical_formula_sum 'C14 H10'
_cell_formula_units_Z 4
_cell_length_a         8.0277941591
_cell_length_b         6.0800392896
_cell_length_c        19.5444365114
_cell_angle_alpha        90.0034
_cell_angle_beta        92.3628
_cell_angle_gamma        89.9967
_cell_volume           953.139307
_space_group_crystal_system monoclinic
_space_group_IT_number 14
_space_group_name_H-M_alt 'P2_1/c'
_space_group_name_Hall '-P 2ybc'
loop_
_symmetry_equiv_pos_site_id
_symmetry_equiv_pos_as_xyz
 1 'x,y,z'
 2 '-x,-y,-z'
 3 '-x,-1/2+y,-1/2-z'
 4 'x,-1/2-y,-1/2+z'
loop_
_atom_site_label
_atom_site_type_symbol
_atom_site_fract_x
_atom_site_fract_y
_atom_site_fract_z
H1    H     0.08509796007113 0.69448090040011 0.22230950012609 
H2    H     0.07561352970719 0.72220812011279 0.09773678992679 
H3    H     0.09391131038256 0.68165536927853 0.32502396996644 
H4    H     0.12628901965640 0.66475824998426 0.44915507977372 
H5    H     0.20326493962173 0.04731165075011 0.04018483010523 
H6    H     0.33350274041182 0.34479403948074 0.11116467998416 
H7    H     0.41117809012716 0.50375158952590 0.22126428010827 
H8    H     0.43841168954820 0.47583217973795 0.34698455001099 
H9    H     0.39905410949133 0.27561545031876 0.45223038982136 
H10   H     0.28351173947543 0.95636868069780 0.51473354974892 
C1    C     0.13977009024667 0.83801293920169 0.19890014019166 
C2    C     0.21463734966913 0.00396427943694 0.24046476974071 
C3    C     0.22728110998262 0.99018766948497 0.31476026997472 
C4    C     0.13532796999620 0.85279893988353 0.12805169998176 
C5    C     0.28342791033127 0.19089091932384 0.20744013011828 
C6    C     0.16087857958144 0.81341567981676 0.35173629003166 
C7    C     0.31170900009941 0.16132292986871 0.35249732001431 
C8    C     0.20603194029034 0.03555324935765 0.09581902018922 
C9    C     0.27767726965690 0.20235457049121 0.13512703004994 
C10   C     0.17991291015148 0.80297083062041 0.42241144007358 
C11   C     0.36152818054501 0.36179877018464 0.24754955028516 
C12   C     0.37611299964664 0.34667512034982 0.31713120003158 
C13   C     0.33137336021553 0.14542391015984 0.42460144988643 
C14   C     0.26711583024198 0.96827994953192 0.45929758008667 
