data_stdin
_audit_creation_method 'critic2'
_audit_creation_date 2023-8-11
_chemical_formula_sum 'C14 H10'
_cell_formula_units_Z 4
_cell_length_a         9.9279165307
_cell_length_b         4.7749765203
_cell_length_c        20.2802934616
_cell_angle_alpha        89.9999
_cell_angle_beta        90.0007
_cell_angle_gamma        89.9997
_cell_volume           961.398837
_space_group_crystal_system orthorhombic
_space_group_IT_number 19
_space_group_name_H-M_alt 'P2_12_12_1'
_space_group_name_Hall 'P 2ac 2ab'
loop_
_symmetry_equiv_pos_site_id
_symmetry_equiv_pos_as_xyz
 1 'x,y,z'
 2 '-1/2-x,-y,-1/2+z'
 3 '-x,-1/2+y,-1/2-z'
 4 '-1/2+x,-1/2-y,-z'
loop_
_atom_site_label
_atom_site_type_symbol
_atom_site_fract_x
_atom_site_fract_y
_atom_site_fract_z
H1    H     0.79412565953452 0.61021119934215 0.21675620977215 
H2    H     0.02928149020444 0.46002384964112 0.21781506995820 
H3    H     0.59816190018144 0.71834451943258 0.21589692976668 
H4    H     0.36008069032146 0.83600103999443 0.21137259983742 
H5    H     0.10954580958919 0.08788797031149 0.14052111004891 
H6    H     0.94824110958130 0.86793887014072 0.06261791006866 
H7    H     0.72304362021491 0.81939069102153 0.01756461008926 
H8    H     0.48382046957480 0.96413276050145 0.01372260020392 
H9    H     0.29914921010680 0.24283671048842 0.05444089986792 
H10   H     0.20710035014001 0.60196789028464 0.13055071010269 
C1    C     0.82548283951231 0.44422297080825 0.18335384991158 
C2    C     0.73095345956811 0.32219436016519 0.13982262996659 
C3    C     0.58986636020612 0.40294172918281 0.13834807979395 
C4    C     0.95916142035391 0.36112287962476 0.18369210002752 
C5    C     0.77752340994411 0.11047037926873 0.09547561994979 
C6    C     0.53463595966195 0.60778970936688 0.18078816996464 
C7    C     0.50219645964799 0.27089838069102 0.09196705985601 
C8    C     0.00430540954116 0.15197357053375 0.14008124996929 
C9    C     0.91454293036727 0.02983762044470 0.09665170016458 
C10   C     0.39939889021577 0.67715415092222 0.17817679993440 
C11   C     0.68536533998496 0.98277016026236 0.05021210980109 
C12   C     0.55360329044025 0.06176674915798 0.04818848990578 
C13   C     0.36454449988376 0.34578907976823 0.09013543006684 
C14   C     0.31337121976172 0.54603007956578 0.13252990991570 
