data_stdin
_audit_creation_method 'critic2'
_audit_creation_date 2023-8-11
_chemical_formula_sum 'C14 H10'
_cell_formula_units_Z 8
_cell_length_a         8.3550531799
_cell_length_b        41.1306834002
_cell_length_c         5.9587306628
_cell_angle_alpha        89.9954
_cell_angle_beta        90.0019
_cell_angle_gamma        89.9785
_cell_volume          2047.711963
_space_group_crystal_system triclinic
_space_group_IT_number 2
_space_group_name_H-M_alt 'P-1'
_space_group_name_Hall '-P 1'
loop_
_symmetry_equiv_pos_site_id
_symmetry_equiv_pos_as_xyz
 1 'x,y,z'
 2 '-x,-y,-z'
loop_
_atom_site_label
_atom_site_type_symbol
_atom_site_fract_x
_atom_site_fract_y
_atom_site_fract_z
H1    H     0.25276961055374 0.58622642987924 0.14292650025799 
H2    H     0.25303612021392 0.91377279989236 0.35707863917767 
H3    H     0.24686300967653 0.08624178996007 0.35710740999594 
H4    H     0.24705858999460 0.41375716001727 0.14289608030891 
H5    H     0.21075520033025 0.52780653002559 0.11430274979780 
H6    H     0.21083162003747 0.97219281003771 0.38567140062752 
H7    H     0.28900722968214 0.02781978992231 0.38580194994333 
H8    H     0.28906728020722 0.47217713010490 0.11426120963610 
H9    H     0.29005559945767 0.63414330999027 0.15271247964641 
H10   H     0.29044238975931 0.86585576990833 0.34727799949799 
H11   H     0.20940350004732 0.13416153994475 0.34732997034881 
H12   H     0.20981279943686 0.36583925998666 0.15271966007822 
H13   H     0.34085373010539 0.69251845011256 0.14702531962384 
H14   H     0.34147792041489 0.80748101004912 0.35299696989456 
H15   H     0.15837452952540 0.19253595988842 0.35306313032443 
H16   H     0.15898991985500 0.30746566994400 0.14702035969424 
H17   H     0.06731427011205 0.50396787989554 0.78533810980410 
H18   H     0.06731376964648 0.99603524994711 0.71461762930573 
H19   H     0.43261641054700 0.00397545000105 0.71470369076095 
H20   H     0.43255855998476 0.49602162989668 0.78534402969296 
H21   H     0.96378561054163 0.54070100006557 0.48470739927072 
H22   H     0.96389681020445 0.95930579008207 0.01524714016706 
H23   H     0.53619209000679 0.04070775005202 0.01519669928963 
H24   H     0.53618501038030 0.45929287993858 0.48480347016215 
H25   H     0.92994915016397 0.59436679989932 0.32664876918157 
H26   H     0.93026256049020 0.90563751992931 0.17335656042782 
H27   H     0.57013671013241 0.09437633000934 0.17300531968174 
H28   H     0.57011250994248 0.40562648000945 0.32682100000029 
H29   H     0.97675476040944 0.65354832001452 0.33735341926515 
H30   H     0.97727694039290 0.84645551990141 0.16266150954596 
H31   H     0.52312418022184 0.15356039008992 0.16231116077764 
H32   H     0.52329324051411 0.34644395008335 0.33752576027910 
H33   H     0.09444654951626 0.70098808005597 0.51352057049725 
H34   H     0.09508327946749 0.79901173995439 0.98647113917243 
H35   H     0.40494273032887 0.20099343006801 0.98642204001945 
H36   H     0.40550846965142 0.29900308994402 0.51362076925096 
H37   H     0.24375933029973 0.72677475007709 0.82967985920879 
H38   H     0.24454854010555 0.77322635002371 0.67036163011541 
H39   H     0.25542558000227 0.22678597994281 0.67036070964757 
H40   H     0.25612256968828 0.27321386999040 0.82971290039930 
C1    C     0.18896758955826 0.57677488999700 0.99808359977304 
C2    C     0.18919788991246 0.92322512997890 0.50190903049817 
C3    C     0.31076444994930 0.07678928999028 0.50190140950350 
C4    C     0.31090748960878 0.42320986990427 0.99809154028134 
C5    C     0.13387172985502 0.59814560989995 0.82906949979939 
C6    C     0.13416765047669 0.90185607010826 0.67092381062014 
C7    C     0.36589808982246 0.09815951989658 0.67082701041784 
C8    C     0.36605698002417 0.40184129003151 0.82912801046160 
C9    C     0.16184182988481 0.63299897991838 0.83550481953266 
C10   C     0.16225305046345 0.86700119994619 0.66449209078053 
C11   C     0.33781149056654 0.13301427989134 0.66439123973344 
C12   C     0.33809752057213 0.36698704996260 0.83557522978440 
C13   C     0.16517387946967 0.54354220996553 0.98199240934929 
C14   C     0.16530062038729 0.95645864993940 0.51798455971218 
C15   C     0.33462693004205 0.04355465992469 0.51803772044720 
C16   C     0.33468927048937 0.45644311002445 0.98198968962734 
C17   C     0.05136417054067 0.58451287001760 0.64125490938478 
C18   C     0.05162201043894 0.91548998011944 0.85873407004849 
C19   C     0.44853185055203 0.08452472996748 0.85857956923484 
C20   C     0.44860613947255 0.41547691000931 0.64134730990803 
C21   C     0.24578485994245 0.64833332988797 0.01198512033967 
C22   C     0.24624084013180 0.85166606998878 0.48801355986898 
C23   C     0.25370830006551 0.14835038992062 0.48799833038436 
C24   C     0.25411161941236 0.35165070996850 0.01202127951255 
C25   C     0.10612623030587 0.65266619991142 0.65375803979802 
C26   C     0.10661681012053 0.84733553993076 0.84624692073872 
C27   C     0.39354155980953 0.15267889998409 0.84608191072210 
C28   C     0.39384934999662 0.34732255010506 0.65386299961531 
C29   C     0.08443446052289 0.53016584003897 0.79627108984297 
C30   C     0.08451589002543 0.96983661993978 0.70369415019050 
C31   C     0.41546835031210 0.03017545007507 0.70371974927838 
C32   C     0.41546212058311 0.46982292005326 0.79629727986778 
C33   C     0.02789788046975 0.55047746997966 0.62908508073183 
C34   C     0.02804175955284 0.94952692004896 0.87088172063301 
C35   C     0.47205326040794 0.05048639987939 0.87080771057666 
C36   C     0.47204592970316 0.44951340993226 0.62915578051770 
C37   C     0.27412254989185 0.68150902005816 0.00989222961343 
C38   C     0.27470942019085 0.81849030988005 0.49012552036081 
C39   C     0.22522661030409 0.18152552010772 0.49012515011178 
C40   C     0.22575732032321 0.31847571007422 0.00991795935271 
C41   C     0.99410331965632 0.60531766990003 0.46634056061337 
C42   C     0.99443420056845 0.89468594993340 0.03365135969676 
C43   C     0.50584366046607 0.10532866997434 0.03339805039137 
C44   C     0.50592483034237 0.39467387007352 0.46648599937700 
C45   C     0.02010338015625 0.63804187009043 0.47237890920350 
C46   C     0.02054690973040 0.86196110995562 0.02761953976353 
C47   C     0.47972416051395 0.13805332006292 0.02737043945761 
C48   C     0.47992211997742 0.36194929989173 0.47252320080459 
C49   C     0.13712783028798 0.68648248006184 0.65462539958335 
C50   C     0.13773792040267 0.81351813987996 0.84538704033613 
C51   C     0.36237459030778 0.18649452004632 0.84526305079128 
C52   C     0.36284108046628 0.31350612993334 0.65472783925708 
C53   C     0.21988808013424 0.70074855001141 0.83000682995882 
C54   C     0.22055955985095 0.79925211991023 0.67002265081346 
C55   C     0.27945516946526 0.20076176992604 0.66997428970444 
C56   C     0.28002589977153 0.29923883003356 0.83006293973512 
