data_stdin
_audit_creation_method 'critic2'
_audit_creation_date 2023-8-11
_chemical_formula_sum 'C14 H10'
_cell_formula_units_Z 4
_cell_length_a        10.3822603444
_cell_length_b        13.6635006700
_cell_length_c         7.1895478706
_cell_angle_alpha        89.9998
_cell_angle_beta        66.8712
_cell_angle_gamma        90.0000
_cell_volume           937.920313
_space_group_crystal_system monoclinic
_space_group_IT_number 14
_space_group_name_H-M_alt 'P2_1/c'
_space_group_name_Hall '-P 2ybc'
loop_
_symmetry_equiv_pos_site_id
_symmetry_equiv_pos_as_xyz
 1 'x,y,z'
 2 '-x,-y,-z'
 3 '-x,-1/2+y,-1/2-z'
 4 'x,-1/2-y,-1/2+z'
loop_
_atom_site_label
_atom_site_type_symbol
_atom_site_fract_x
_atom_site_fract_y
_atom_site_fract_z
H1    H     0.03609462528789 0.06927425796585 0.41512769224027 
H2    H     0.29078856101631 0.07209062747644 0.30392596022717 
H3    H     0.82953022898864 0.06714732424484 0.49776517635373 
H4    H     0.57586787816980 0.07952312344118 0.59660396111673 
H5    H     0.44310578611594 0.11779728221601 0.94921047182172 
H6    H     0.33404782972686 0.15950397032713 0.70679833943140 
H7    H     0.12968207402459 0.17979366142170 0.62707743131707 
H8    H     0.87294341677781 0.18314498446871 0.73288590500712 
H9    H     0.63974256015723 0.17284367438343 0.99438571686033 
H10   H     0.47815587065647 0.13580952069500 0.34821845161728 
C1    C     0.09985553999928 0.08699069071851 0.25836857168179 
C2    C     0.03490916692725 0.10914595475467 0.12384138306022 
C3    C     0.88395964113833 0.11105790443853 0.18601086900305 
C4    C     0.24395282716217 0.08970145725140 0.19654113183674 
C5    C     0.12240303219260 0.13507031190514 0.92097759461923 
C6    C     0.78964649718703 0.08937281183083 0.38525156972725 
C7    C     0.82712220211553 0.13948576780335 0.04270975400674 
C8    C     0.32983190274328 0.11552318409838 0.99652762258186 
C9    C     0.26938547202839 0.13810119326760 0.86149708453361 
C10   C     0.64622306503250 0.09696342591100 0.44217983688825 
C11   C     0.06080694957335 0.15988354457788 0.78087005125512 
C12   C     0.91901700028888 0.16176393859930 0.83923979599023 
C13   C     0.68038592181866 0.14808267018199 0.10490433623507 
C14   C     0.59084253668391 0.12774297662576 0.30176940074038 
