data_stdin
_audit_creation_method 'critic2'
_audit_creation_date 2023-8-11
_chemical_formula_sum 'C14 H10'
_cell_formula_units_Z 4
_cell_length_a        16.7801467286
_cell_length_b         6.0753603314
_cell_length_c         9.2934303053
_cell_angle_alpha        89.9996
_cell_angle_beta        88.2999
_cell_angle_gamma        89.9988
_cell_volume           947.005788
_space_group_crystal_system monoclinic
_space_group_IT_number 14
_space_group_name_H-M_alt 'P2_1/c'
_space_group_name_Hall '-P 2ybc'
loop_
_symmetry_equiv_pos_site_id
_symmetry_equiv_pos_as_xyz
 1 'x,y,z'
 2 '-x,-y,-z'
 3 '-1/2-x,-1/2+y,-1/2-z'
 4 '-1/2+x,-1/2-y,-1/2+z'
loop_
_atom_site_label
_atom_site_type_symbol
_atom_site_fract_x
_atom_site_fract_y
_atom_site_fract_z
H1    H     0.31860349972561 0.70524561961513 0.90628336011942 
H2    H     0.19402255979895 0.75242318019856 0.78225882991651 
H3    H     0.42229332971655 0.67920751036057 0.00710443050145 
H4    H     0.54100466970039 0.63971700067460 0.15091867030879 
H5    H     0.10791925986132 0.08327443933585 0.83117811002585 
H6    H     0.15305641983158 0.37047565014008 0.00115828989346 
H7    H     0.24945333973135 0.51215249985594 0.16617373015152 
H8    H     0.36954505011976 0.46064247964767 0.30852862985918 
H9    H     0.48308492015760 0.24078503966376 0.37666181050308 
H10   H     0.57177636002701 0.91621546972329 0.34031346988158 
C1    C     0.28357366021973 0.85261681034577 0.92776222042704 
C2    C     0.31030748017013 0.01142951041241 0.02623821032599 
C3    C     0.38276569013563 0.98495307924145 0.10630161957903 
C4    C     0.21220869996496 0.87781111054916 0.85832397949853 
C5    C     0.26215462028348 0.20276310080939 0.05053448014966 
C6    C     0.43471171017464 0.80366816003530 0.08730800012111 
C7    C     0.40230368009217 0.14731696954781 0.21075489012938 
C8    C     0.16428057983550 0.06435778957246 0.88496941982866 
C9    C     0.18942016013174 0.22510940026214 0.97878684965851 
C10   C     0.50180455985016 0.78045786000236 0.16907172033382 
C11   C     0.28625369022367 0.36593472071481 0.15136950954822 
C12   C     0.35296598023975 0.33778118011130 0.22962905013054 
C13   C     0.47041732994535 0.11799471975993 0.29486649013141 
C14   C     0.51953521011271 0.93703190941068 0.27500098011560 
