data_stdin
_audit_creation_method 'critic2'
_audit_creation_date 2023-8-11
_chemical_formula_sum 'C14 H10'
_cell_formula_units_Z 4
_cell_length_a        15.6387120200
_cell_length_b         9.4733519100
_cell_length_c         6.4855897901
_cell_angle_alpha        90.0003
_cell_angle_beta        90.0001
_cell_angle_gamma        90.0000
_cell_volume           960.846758
_space_group_crystal_system orthorhombic
_space_group_IT_number 29
_space_group_name_H-M_alt 'Pca2_1'
_space_group_name_Hall 'P 2c -2ac'
loop_
_symmetry_equiv_pos_site_id
_symmetry_equiv_pos_as_xyz
 1 'x,y,z'
 2 '-x,-y,-1/2+z'
 3 '-1/2-x,y,-1/2+z'
 4 '-1/2+x,-y,z'
loop_
_atom_site_label
_atom_site_type_symbol
_atom_site_fract_x
_atom_site_fract_y
_atom_site_fract_z
H1    H     0.70759264972203 0.93379388998270 0.99164848971200 
H2    H     0.70444420009557 0.70495880965030 0.16511114036417 
H3    H     0.70828806017987 0.12471017048836 0.85768137955972 
H4    H     0.70981282001201 0.36058107023809 0.70732577024165 
H5    H     0.62828647973747 0.67543591989469 0.50096363063165 
H6    H     0.55818526968820 0.88230876042088 0.66443338981717 
H7    H     0.51975677992803 0.13065827042155 0.66390251045469 
H8    H     0.52196908974806 0.36525946006407 0.49942940066826 
H9    H     0.56350387004787 0.51961807967665 0.22083620058182 
H10   H     0.63689128002384 0.56170551991411 0.88598297971976 
C1    C     0.67419126022549 0.92484042045484 0.13810901012387 
C2    C     0.63390665982034 0.04414802004574 0.22594566987305 
C3    C     0.63498396010684 0.18261643045911 0.12909351007774 
C4    C     0.67247183029077 0.79477262977145 0.23595014945664 
C5    C     0.59165289968896 0.02717443010522 0.42001361947524 
C6    C     0.67631853986603 0.20969367999665 0.93957203064831 
C7    C     0.59377369989858 0.29775021987598 0.23092249067135 
C8    C     0.62990641979273 0.77823301962811 0.42568196997797 
C9    C     0.59052808971102 0.89322764018439 0.51657274017770 
C10   C     0.67740763977147 0.34366444023045 0.85374758982741 
C11   C     0.55096326012704 0.14569830997147 0.51553576940434 
C12   C     0.55208321024266 0.27529777038707 0.42446015983472 
C13   C     0.59514465015206 0.43330583010407 0.13997041058240 
C14   C     0.63632869996448 0.45651537028431 0.95409025929225 
