data_stdin
_audit_creation_method 'critic2'
_audit_creation_date 2023-8-11
_chemical_formula_sum 'C14 H10'
_cell_formula_units_Z 8
_cell_length_a        15.5494802563
_cell_length_b        10.8012761530
_cell_length_c        13.4848756688
_cell_angle_alpha        90.0015
_cell_angle_beta        57.9928
_cell_angle_gamma        90.0012
_cell_volume          1920.543038
_space_group_crystal_system monoclinic
_space_group_IT_number 15
_space_group_name_H-M_alt 'C2/c'
_space_group_name_Hall '-C 2yc'
loop_
_symmetry_equiv_pos_site_id
_symmetry_equiv_pos_as_xyz
 1 'x,y,z'
 2 '-x,-y,-z'
 3 '-x,y,-1/2-z'
 4 'x,-y,-1/2+z'
 5 '-1/2+x,-1/2+y,z'
 6 '-1/2-x,-1/2-y,-z'
 7 '-1/2-x,-1/2+y,-1/2-z'
 8 '-1/2+x,-1/2-y,-1/2+z'
loop_
_atom_site_label
_atom_site_type_symbol
_atom_site_fract_x
_atom_site_fract_y
_atom_site_fract_z
H1    H     0.35902307218566 0.73934755816158 0.22097082053535 
H2    H     0.27980356434954 0.63048298785887 0.12932796310420 
H3    H     0.41874069017604 0.82972016355887 0.29744180685745 
H4    H     0.48967399947193 0.95195772637272 0.39100290265766 
H5    H     0.09342337483524 0.63569938027070 0.21971090673571 
H6    H     0.98505638013685 0.75247836956511 0.40505839656329 
H7    H     0.96712605269371 0.88177638376148 0.56307614593393 
H8    H     0.04220400450787 0.99722977530713 0.65653806290334 
H9    H     0.19009970101806 0.06729643420448 0.65966480932903 
H10   H     0.37544443404203 0.07167884671522 0.57314262206982 
C1    C     0.27715634253553 0.74399611551347 0.26180126333947 
C2    C     0.21827768568607 0.81189219815483 0.36638099839223 
C3    C     0.26249664440737 0.87926133500014 0.42193532931825 
C4    C     0.23298257934892 0.68212275277021 0.20998335721062 
C5    C     0.11085368305224 0.81396634104068 0.41850573329645 
C6    C     0.36787286162302 0.88234258282261 0.37585867210623 
C7    C     0.19767824672756 0.94687794650081 0.52694567613470 
C8    C     0.12715140061285 0.68522367283558 0.26116388564786 
C9    C     0.06721678547367 0.75009013034028 0.36406214729771 
C10   C     0.40800803970791 0.95042801975522 0.42896855428883 
C11   C     0.04874217074616 0.88054222957953 0.52519950105788 
C12   C     0.09037094474089 0.94455386230072 0.57687498058349 
C13   C     0.24024037325054 0.01574011077752 0.57983128470879 
C14   C     0.34393144212088 0.01825682360881 0.53135433439331 
