data_stdin
_audit_creation_method 'critic2'
_audit_creation_date 2023-8-11
_chemical_formula_sum 'C14 H10'
_cell_formula_units_Z 4
_cell_length_a         6.2471128900
_cell_length_b        16.8595932100
_cell_length_c         9.2290671204
_cell_angle_alpha        89.9996
_cell_angle_beta        90.0002
_cell_angle_gamma        89.9999
_cell_volume           972.040254
_space_group_crystal_system orthorhombic
_space_group_IT_number 33
_space_group_name_H-M_alt 'Pna2_1'
_space_group_name_Hall 'P 2c -2n'
loop_
_symmetry_equiv_pos_site_id
_symmetry_equiv_pos_as_xyz
 1 'x,y,z'
 2 '-x,-y,-1/2+z'
 3 '-1/2-x,-1/2+y,-1/2+z'
 4 '-1/2+x,-1/2-y,z'
loop_
_atom_site_label
_atom_site_type_symbol
_atom_site_fract_x
_atom_site_fract_y
_atom_site_fract_z
H1    H     0.62880234994012 0.21241504023590 0.99950394018996 
H2    H     0.46829225946938 0.21629731015014 0.24040139965262 
H3    H     0.76951819018791 0.20897092003395 0.80561781959037 
H4    H     0.95819389052686 0.20669069985074 0.57360573983606 
H5    H     0.64110987933171 0.14477017002385 0.44771011952924 
H6    H     0.97222774061421 0.06764111992232 0.40651854052190 
H7    H     0.25702973967329 0.02198114985085 0.24921088994222 
H8    H     0.44114533007974 0.02248482002815 0.01171774049771 
H9    H     0.45722855030193 0.06291681001906 0.75911881010514 
H10   H     0.30178760072391 0.13313360978735 0.54671988051213 
C1    C     0.70671418020074 0.18043400975137 0.08704506034798 
C2    C     0.89777405054122 0.13796698988567 0.06070635979590 
C3    C     0.00267870011227 0.13649941994586 0.92007615039006 
C4    C     0.61553464037227 0.18302778015421 0.22383655969331 
C5    C     0.99403790040769 0.09649895019181 0.17897055033311 
C6    C     0.91915914940149 0.17629483020126 0.79759783050484 
C7    C     0.20104882007332 0.09505263975689 0.90471709020836 
C8    C     0.71195409951709 0.14250916980940 0.33991223005852 
C9    C     0.89779902976244 0.09965078011398 0.31731369032969 
C10   C     0.02559833050555 0.17526282976667 0.66594460013604 
C11   C     0.18909856007342 0.05363371971173 0.15710720005444 
C12   C     0.28978018010369 0.05361314970906 0.02616092977742 
C13   C     0.30632910936150 0.09484712982719 0.76900614002690 
C14   C     0.22017045019786 0.13399719987727 0.65100869963673 
