data_stdin
_audit_creation_method 'critic2'
_audit_creation_date 2023-8-11
_chemical_formula_sum 'C14 H10'
_cell_formula_units_Z 2
_cell_length_a        10.1242695697
_cell_length_b         8.8666254632
_cell_length_c         7.3116055052
_cell_angle_alpha       122.7279
_cell_angle_beta        71.6789
_cell_angle_gamma        78.2946
_cell_volume           463.536153
_space_group_crystal_system triclinic
_space_group_IT_number 2
_space_group_name_H-M_alt 'P-1'
_space_group_name_Hall '-P 1'
loop_
_symmetry_equiv_pos_site_id
_symmetry_equiv_pos_as_xyz
 1 'x,y,z'
 2 '-x,-y,-z'
loop_
_atom_site_label
_atom_site_type_symbol
_atom_site_fract_x
_atom_site_fract_y
_atom_site_fract_z
H1    H     0.60575612962363 0.16450225045631 0.97471297088225 
H2    H     0.84953223011467 0.18335147979964 0.82680420036986 
H3    H     0.40276751989455 0.15997647027610 0.09863517040528 
H4    H     0.15345101962199 0.15129875024185 0.23922251975332 
H5    H     0.90924833059089 0.27206481987508 0.54967487927818 
H6    H     0.72384011030221 0.32913846979195 0.41144066917743 
H7    H     0.48024160992285 0.35245410975403 0.41434480976834 
H8    H     0.22839707010664 0.34467845041125 0.56615278976932 
H9    H     0.04750881988872 0.29302348006513 0.80800486002292 
H10   H     0.97302319964880 0.21584689960908 0.09421668988926 
C1    C     0.62960098050863 0.20058224985380 0.85131298953235 
C2    C     0.52012556002590 0.23686414997395 0.78077404955958 
C3    C     0.37291136991181 0.23053737987162 0.86818630996151 
C4    C     0.76791819023217 0.21091612978895 0.76775563058442 
C5    C     0.55696955038562 0.28207806990220 0.61678689053462 
C6    C     0.32677456026949 0.18872114951847 0.03226709924638 
C7    C     0.26870173975724 0.26938272016655 0.78793307004861 
C8    C     0.80231481047385 0.25914294022455 0.61002260926746 
C9    C     0.69853010021836 0.29249975043523 0.53460381995406 
C10   C     0.18526742992389 0.18444393926538 0.11305444915416 
C11   C     0.44906326015209 0.31914514966892 0.54048804940944 
C12   C     0.31037911976890 0.31429991986241 0.62351760977506 
C13   C     0.12515612973859 0.26330021958246 0.87187003010765 
C14   C     0.08338458996527 0.22154100092130 0.03210788075315 
