data_stdin
_audit_creation_method 'critic2'
_audit_creation_date 2023-8-11
_chemical_formula_sum 'C14 H10'
_cell_formula_units_Z 4
_cell_length_a         5.9404254500
_cell_length_b        11.6060384100
_cell_length_c        13.7250069800
_cell_angle_alpha        90.0000
_cell_angle_beta        90.0000
_cell_angle_gamma        90.0002
_cell_volume           946.267943
_space_group_crystal_system orthorhombic
_space_group_IT_number 19
_space_group_name_H-M_alt 'P2_12_12_1'
_space_group_name_Hall 'P 2ac 2ab'
loop_
_symmetry_equiv_pos_site_id
_symmetry_equiv_pos_as_xyz
 1 'x,y,z'
 2 '-1/2-x,-y,-1/2+z'
 3 '-1/2+x,-1/2-y,-z'
 4 '-x,-1/2+y,-1/2-z'
loop_
_atom_site_label
_atom_site_type_symbol
_atom_site_fract_x
_atom_site_fract_y
_atom_site_fract_z
H1    H     0.49968660977999 0.23972678976299 0.90005768965733 
H2    H     0.79576671065760 0.34063432984742 0.80966468987135 
H3    H     0.24866189058753 0.16232643041549 0.96973245023732 
H4    H     0.94622503022285 0.05653321034764 0.05098800017253 
H5    H     0.81012018990824 0.33193982041236 0.62922407024526 
H6    H     0.51987755039738 0.21912107959012 0.53865763995739 
H7    H     0.18681277946115 0.09730253042002 0.53712812989337 
H8    H     0.88344635955433 0.99410426999407 0.62421267986532 
H9    H     0.69656946057326 0.93823509015236 0.77415658006792 
H10   H     0.66670486073215 0.94311863033548 0.95358850005199 
C1    C     0.49912228040181 0.23613091025172 0.82092523019490 
C2    C     0.33061800983106 0.17258595979541 0.77204641964874 
C3    C     0.15172358950959 0.11224817033363 0.82307491980338 
C4    C     0.66755151009286 0.29267885976347 0.77025306995655 
C5    C     0.34008058020392 0.16696027977747 0.66815933029716 
C6    C     0.12890819948977 0.11421122959132 0.92559489994592 
C7    C     0.99123809966097 0.04751240977899 0.76818256973495 
C8    C     0.67545281043553 0.28762802019086 0.66786181001543 
C9    C     0.51434016040525 0.22515350019067 0.61791041976845 
C10   C     0.95701274977162 0.05476442972874 0.97179528984140 
C11   C     0.17460332077347 0.10158782960627 0.61621152971145 
C12   C     0.00792498983784 0.04418624010524 0.66420625976141 
C13   C     0.81779680959868 0.98728762016797 0.81687071993931 
C14   C     0.80050342081491 0.99055992993165 0.91728425033571 
