data_stdin
_audit_creation_method 'critic2'
_audit_creation_date 2023-8-11
_chemical_formula_sum 'C14 H10'
_cell_formula_units_Z 2
_cell_length_a         9.6552140880
_cell_length_b         4.9091843401
_cell_length_c        10.9402349470
_cell_angle_alpha        89.9996
_cell_angle_beta        69.2757
_cell_angle_gamma        89.9998
_cell_volume           485.004971
_space_group_crystal_system monoclinic
_space_group_IT_number 7
_space_group_name_H-M_alt 'Pc'
_space_group_name_Hall 'P -2yc'
loop_
_symmetry_equiv_pos_site_id
_symmetry_equiv_pos_as_xyz
 1 'x,y,z'
 2 'x,-y,-1/2+z'
loop_
_atom_site_label
_atom_site_type_symbol
_atom_site_fract_x
_atom_site_fract_y
_atom_site_fract_z
H1    H     0.95350919996547 0.45132746023416 0.99356569001389 
H2    H     0.69984967985304 0.58880088991683 0.02244440011460 
H3    H     0.16453940008776 0.34609074081892 0.96363121959962 
H4    H     0.42163003024325 0.24423632097622 0.92900113002128 
H5    H     0.65269785051637 0.95340064046611 0.88337102979622 
H6    H     0.86477905037213 0.17878583997148 0.71355064025208 
H7    H     0.12797245008822 0.24588290065169 0.60465259004601 
H8    H     0.38545044003582 0.13923458976713 0.57740970008261 
H9    H     0.56609390956407 0.86650514917646 0.63320663020026 
H10   H     0.62647486032528 0.50165889016227 0.76363573036195 
C1    C     0.93641504956322 0.61393580003203 0.93276263993068 
C2    C     0.05944050987077 0.74130449974604 0.83823413043670 
C3    C     0.21192527973250 0.67162968928444 0.81935967015454 
C4    C     0.79271915021009 0.68996669901447 0.94908110023219 
C5    C     0.03117746977611 0.94877576991692 0.75837814044775 
C6    C     0.25017770030646 0.46554597086627 0.89191482012117 
C7    C     0.32911798000268 0.81651022925133 0.72368881953337 
C8    C     0.76582606967060 0.89554919007681 0.87054463975599 
C9    C     0.88355770940648 0.02083637068852 0.77592296049765 
C10   C     0.39655051967466 0.40572188074189 0.87209749963288 
C11   C     0.15218901992004 0.08622684003482 0.66305089992324 
C12   C     0.29504710994250 0.02511763986644 0.64738605030161 
C13   C     0.47789781970756 0.75179680003421 0.70537531000682 
C14   C     0.51157556013869 0.54903099068033 0.77814907954366 
