data_stdin
_audit_creation_method 'critic2'
_audit_creation_date 2023-8-11
_chemical_formula_sum 'C14 H10'
_cell_formula_units_Z 4
_cell_length_a        16.0039115802
_cell_length_b         6.5517347129
_cell_length_c         9.2616821900
_cell_angle_alpha        90.0000
_cell_angle_beta        90.0001
_cell_angle_gamma        89.9985
_cell_volume           971.118710
_space_group_crystal_system orthorhombic
_space_group_IT_number 29
_space_group_name_H-M_alt 'Pca2_1'
_space_group_name_Hall 'P 2c -2ac'
loop_
_symmetry_equiv_pos_site_id
_symmetry_equiv_pos_as_xyz
 1 'x,y,z'
 2 '-x,-y,-1/2+z'
 3 '-1/2-x,y,-1/2+z'
 4 '-1/2+x,-y,z'
loop_
_atom_site_label
_atom_site_type_symbol
_atom_site_fract_x
_atom_site_fract_y
_atom_site_fract_z
H1    H     0.01436602023746 0.99054912943427 0.00781545993078 
H2    H     0.88094304999225 0.04909195946837 0.88678783956886 
H3    H     0.12670648023245 0.94589377987674 0.09503991980385 
H4    H     0.26619716979571 0.89723156969399 0.19729924980938 
H5    H     0.85506997003104 0.37640186962521 0.75218539968242 
H6    H     0.96407120988403 0.64239739057600 0.74710334972566 
H7    H     0.10195307978771 0.76617955982431 0.81212712025825 
H8    H     0.24023742978678 0.71221056944196 0.92545489972257 
H9    H     0.33932330027935 0.49467427055215 0.05227482956704 
H10   H     0.37412620016955 0.17113655074426 0.17649042015827 
C1    C     0.00482946002637 0.13391980050391 0.95077814947314 
C2    C     0.06920143008449 0.28184682072894 0.94677526969826 
C3    C     0.15071269978533 0.24979466031456 0.01212609031119 
C4    C     0.92903593030947 0.16657692028904 0.88205938979309 
C5    C     0.05312589009962 0.46935089971462 0.87280096980590 
C6    C     0.17224406007910 0.06796516985463 0.08493916000956 
C7    C     0.21257535970538 0.40634727975603 0.00132847028673 
C8    C     0.91431964009169 0.34999769980081 0.80686547973524 
C9    C     0.97531153021405 0.49938852924204 0.80380385994092 
C10   C     0.25121686013105 0.03991228986799 0.14278921040683 
C11   C     0.11637828015865 0.62363714988178 0.86756169039092 
C12   C     0.19276004992304 0.59333927994065 0.92919499947518 
C13   C     0.29267512001563 0.37451909971206 0.06182032035739 
C14   C     0.31215704009764 0.19360902929991 0.13084043012783 
