data_stdin
_audit_creation_method 'critic2'
_audit_creation_date 2023-8-11
_chemical_formula_sum 'C14 H10'
_cell_formula_units_Z 4
_cell_length_a        18.9004642968
_cell_length_b         6.4918649799
_cell_length_c         7.7562334219
_cell_angle_alpha        89.9956
_cell_angle_beta        84.6977
_cell_angle_gamma        90.0007
_cell_volume           947.611801
_space_group_crystal_system monoclinic
_space_group_IT_number 5
_space_group_name_H-M_alt 'C2'
_space_group_name_Hall 'C 2y'
loop_
_symmetry_equiv_pos_site_id
_symmetry_equiv_pos_as_xyz
 1 'x,y,z'
 2 '-x,y,-z'
 3 '-1/2+x,-1/2+y,z'
 4 '-1/2-x,-1/2+y,-z'
loop_
_atom_site_label
_atom_site_type_symbol
_atom_site_fract_x
_atom_site_fract_y
_atom_site_fract_z
H1    H     0.22523092004982 0.92798267055779 0.08882221007197 
H2    H     0.09799256003011 0.90234729997759 0.06063036014090 
H3    H     0.32881556020156 0.95379377969808 0.11961167043849 
H4    H     0.45364397012894 0.99244370931805 0.16927840994663 
H5    H     0.01564732994246 0.18353563008473 0.16914437967144 
H6    H     0.06463973002387 0.49776914024233 0.30065098935502 
H7    H     0.16418720995320 0.69809972062108 0.38284944059688 
H8    H     0.29187802024802 0.73204866019416 0.41823818953065 
H9    H     0.41023333985855 0.58621416037517 0.40488194971729 
H10   H     0.49596134017040 0.30696051075134 0.31640047951518 
C1    C     0.19100872012756 0.05449804929804 0.13521026995426 
C2    C     0.22028230005957 0.22962935969639 0.20999188995080 
C3    C     0.29547292011586 0.24859509049309 0.23286003954233 
C4    C     0.11875593010059 0.03894491051656 0.11994730948640 
C5    C     0.17323916018320 0.39294767074733 0.26797277061315 
C6    C     0.34547299981670 0.09305685983208 0.18242736999306 
C7    C     0.32024765012264 0.43069105943441 0.31162454978158 
C8    C     0.07246054011629 0.19848674948326 0.18012334005154 
C9    C     0.09956111006739 0.37268294015408 0.25290021945672 
C10   C     0.41637092991464 0.11410640955863 0.21133382050603 
C11   C     0.20087482017554 0.57460640940239 0.34161120948463 
C12   C     0.27148851976777 0.59315479028250 0.36175067998175 
C13   C     0.39274873023303 0.44777640072173 0.34138662013420 
C14   C     0.44027856991562 0.29154775929382 0.29281501997101 
