data_stdin
_audit_creation_method 'critic2'
_audit_creation_date 2023-8-11
_chemical_formula_sum 'C14 H10'
_cell_formula_units_Z 18
_cell_length_a        28.7328640800
_cell_length_b        28.7473369537
_cell_length_c         6.3100615543
_cell_angle_alpha        90.0267
_cell_angle_beta        89.9730
_cell_angle_gamma       119.9866
_cell_volume          4514.394606
_space_group_crystal_system triclinic
_space_group_IT_number 2
_space_group_name_H-M_alt 'P-1'
_space_group_name_Hall '-P 1'
loop_
_symmetry_equiv_pos_site_id
_symmetry_equiv_pos_as_xyz
 1 'x,y,z'
 2 '-x,-y,-z'
 3 '-1/3+x,-2/3+y,-2/3+z'
 4 '-1/3-x,-2/3-y,-2/3-z'
 5 '-2/3+x,-1/3+y,-1/3+z'
 6 '-2/3-x,-1/3-y,-1/3-z'
loop_
_atom_site_label
_atom_site_type_symbol
_atom_site_fract_x
_atom_site_fract_y
_atom_site_fract_z
H1    H     0.20897217788463 0.48595215691683 0.69118841427003 
H2    H     0.51402311635817 0.72297928775389 0.69115194049256 
H3    H     0.27692959419420 0.79100733580379 0.69106571255665 
H4    H     0.30040527392412 0.56083743269063 0.63867686419112 
H5    H     0.43908518972831 0.73949306267206 0.63890621465663 
H6    H     0.26036633534196 0.69958725062544 0.63858666660894 
H7    H     0.13367546814997 0.42518310827667 0.72271296072706 
H8    H     0.57483439303863 0.70848223417963 0.72244176744349 
H9    H     0.29149918187383 0.86631029501089 0.72248328357263 
H10   H     0.04486006486577 0.34513702513274 0.76371376107361 
H11   H     0.65492243619151 0.69973366682188 0.76324759801563 
H12   H     0.30031816061833 0.95513547634895 0.76341019390722 
H13   H     0.35090327813581 0.56750665733197 0.30509275740346 
H14   H     0.43240190865548 0.78329996813432 0.30553496826715 
H15   H     0.21654125937209 0.64910772354234 0.30510419348272 
H16   H     0.30831550301461 0.49724044539002 0.03040527235760 
H17   H     0.50271768766962 0.81101827954050 0.03087072266252 
H18   H     0.18887861238079 0.69170328941216 0.03051146519516 
H19   H     0.23210338707684 0.41512350708939 0.89722540290488 
H20   H     0.58490660541877 0.81697555405474 0.89755353011788 
H21   H     0.18298546003336 0.76790978371584 0.89737022110324 
H22   H     0.14059360481146 0.33726835629030 0.94564461133077 
H23   H     0.66279751891577 0.80333819073029 0.94567428632871 
H24   H     0.19667586762633 0.85941787347831 0.94568388803489 
H25   H     0.06147555581123 0.28558786460348 0.15950766159984 
H26   H     0.71447488496544 0.77584472232701 0.15917803282981 
H27   H     0.22414570685014 0.93854164099808 0.15945794347053 
H28   H     0.00830669348060 0.27413495193081 0.48685209705882 
H29   H     0.72597594335531 0.73422239410222 0.48621599609205 
H30   H     0.26590357123712 0.99170290576235 0.48655522713924 
C1    C     0.22996139062158 0.48791481107746 0.54507298609440 
C2    C     0.51205498916741 0.74200076665922 0.54514178653451 
C3    C     0.25790900535966 0.77003026003323 0.54498717279290 
C4    C     0.20437712664113 0.44741589010709 0.38985938377839 
C5    C     0.55258139141124 0.75693116171809 0.38991921128731 
C6    C     0.24301290386641 0.79562282816183 0.38980145022601 
C7    C     0.15040797879120 0.40204644265803 0.41663952119483 
C8    C     0.59798372023606 0.74835480036196 0.41654531901644 
C9    C     0.25164049426928 0.84959572985346 0.41651443419703 
C10   C     0.28167953760249 0.53041904765943 0.51553183231556 
C11   C     0.46952255011812 0.75119643996538 0.51575184790559 
C12   C     0.24868323276439 0.71831615021169 0.51546977383104 
C13   C     0.23352943842548 0.45135126376392 0.20070623179528 
C14   C     0.54864230884637 0.78214338407084 0.20090234130277 
C15   C     0.21779003127164 0.76647837764891 0.20072834854979 
C16   C     0.11852855825638 0.39516576971712 0.59744191690313 
C17   C     0.60487242275944 0.72336031882323 0.59718808465404 
C18   C     0.27664531137730 0.88146771653172 0.59723541062762 
C19   C     0.12847676507497 0.36187291364322 0.25518442394897 
C20   C     0.63817482420301 0.76660334632731 0.25506762737701 
C21   C     0.23341447021580 0.87153610691686 0.25509225203928 
C22   C     0.31025927150102 0.53415706592442 0.32886608205897 
C23   C     0.46578647115688 0.77604196232996 0.32924148276467 
C24   C     0.22384747442769 0.68974905888132 0.32885983643362 
C25   C     0.28636423313610 0.49496167122491 0.17455092185034 
C26   C     0.50501015597385 0.79136256293471 0.17492753108773 
C27   C     0.20855837384257 0.71364986030123 0.17458724205708 
C28   C     0.06833446110505 0.34993925169304 0.62163256692227 
C29   C     0.65012449556870 0.71840279696564 0.62126010545928 
C30   C     0.28163807459057 0.93166839747557 0.62138243170882 
C31   C     0.20915150379450 0.41092659006033 0.04057234941293 
C32   C     0.58909409068701 0.79821077035567 0.04077145795640 
C33   C     0.20175261798314 0.79085967800823 0.04063949897774 
C34   C     0.15889407820116 0.36797511582097 0.06746906021355 
C35   C     0.63207601190082 0.79092437502649 0.06752238910923 
C36   C     0.20908215972315 0.84112073732052 0.06747914499622 
C37   C     0.07706484467499 0.31618430715348 0.28306522262919 
C38   C     0.68387467986896 0.76086755998920 0.28278276444081 
C39   C     0.23915759369398 0.92295094448147 0.28295077539623 
C40   C     0.04749254729000 0.30982837371308 0.46453167587192 
C41   C     0.69024388099046 0.73766156928043 0.46411994408923 
C42   C     0.26238385980431 0.95252216677092 0.46433156913131 
