data_stdin
_audit_creation_method 'critic2'
_audit_creation_date 2023-8-11
_chemical_formula_sum 'C14 H10'
_cell_formula_units_Z 4
_cell_length_a        10.9811295707
_cell_length_b         6.1894868900
_cell_length_c        14.1071996123
_cell_angle_alpha        90.0001
_cell_angle_beta        77.3545
_cell_angle_gamma        90.0002
_cell_volume           935.573609
_space_group_crystal_system monoclinic
_space_group_IT_number 14
_space_group_name_H-M_alt 'P2_1/c'
_space_group_name_Hall '-P 2ybc'
loop_
_symmetry_equiv_pos_site_id
_symmetry_equiv_pos_as_xyz
 1 'x,y,z'
 2 '-x,-y,-z'
 3 '-x,-1/2+y,-1/2-z'
 4 'x,-1/2-y,-1/2+z'
loop_
_atom_site_label
_atom_site_type_symbol
_atom_site_fract_x
_atom_site_fract_y
_atom_site_fract_z
H1    H     0.70277446988286 0.15322999067326 0.61061513970338 
H2    H     0.83086955011835 0.16031192920373 0.73153480022670 
H3    H     0.60289020049274 0.15244116038338 0.50694104979976 
H4    H     0.48042755012441 0.16723366064460 0.38168013022097 
H5    H     0.97912605964994 0.46674860925622 0.73545650033152 
H6    H     0.98513672965513 0.77472652933110 0.62226019013004 
H7    H     0.91072246021566 0.95590301999814 0.49321282974694 
H8    H     0.78937518044846 0.95296217079920 0.36504530994817 
H9    H     0.65015718033116 0.77595202997006 0.27979545020364 
H10   H     0.50266723976488 0.47697704965075 0.26633682026084 
C1    C     0.76433353021092 0.29031305943664 0.61162139005975 
C2    C     0.76923857030116 0.45949551035637 0.54355525015860 
C3    C     0.69716480997153 0.45859475948513 0.46853204000733 
C4    C     0.83764845036355 0.29326111962021 0.68003901015746 
C5    C     0.84878422025335 0.63924028070008 0.54984902970212 
C6    C     0.61446548980380 0.28985719017117 0.45786037032225 
C7    C     0.70791378985345 0.63737029923017 0.40315099031586 
C8    C     0.91934911033581 0.46691658971854 0.68327935018998 
C9    C     0.92318684989286 0.63829547969480 0.61992649029432 
C10   C     0.54564741982483 0.29707429952823 0.38663824019991 
C11   C     0.85299264010625 0.81752245992145 0.48474322990238 
C12   C     0.78591507993556 0.81647583006612 0.41414448974199 
C13   C     0.63839439979578 0.63928669013155 0.32972622010440 
C14   C     0.55770584001487 0.47230878942504 0.32172268016035 
