data_stdin
_audit_creation_method 'critic2'
_audit_creation_date 2023-8-11
_chemical_formula_sum 'C14 H10'
_cell_formula_units_Z 16
_cell_length_a        35.1021701351
_cell_length_b        20.2705204484
_cell_length_c         5.4601834358
_cell_angle_alpha        89.9981
_cell_angle_beta        90.0046
_cell_angle_gamma        90.0003
_cell_volume          3885.134853
_space_group_crystal_system orthorhombic
_space_group_IT_number 43
_space_group_name_H-M_alt 'Fdd2'
_space_group_name_Hall 'F 2 -2d'
loop_
_symmetry_equiv_pos_site_id
_symmetry_equiv_pos_as_xyz
 1 'x,y,z'
 2 '-1/2-x,-1/2-y,z'
 3 '-1/4+x,-1/4-y,-3/4+z'
 4 '-1/4-x,-1/4+y,-3/4+z'
 5 '-1/2+x,y,-1/2+z'
 6 '-x,-1/2-y,-1/2+z'
 7 '-3/4+x,-1/4-y,-1/4+z'
 8 '-3/4-x,-1/4+y,-1/4+z'
 9 'x,-1/2+y,-1/2+z'
 10 '-1/2-x,-y,-1/2+z'
 11 '-1/4+x,-3/4-y,-1/4+z'
 12 '-1/4-x,-3/4+y,-1/4+z'
 13 '-1/2+x,-1/2+y,z'
 14 '-x,-y,z'
 15 '-3/4+x,-3/4-y,-3/4+z'
 16 '-3/4-x,-3/4+y,-3/4+z'
loop_
_atom_site_label
_atom_site_type_symbol
_atom_site_fract_x
_atom_site_fract_y
_atom_site_fract_z
H1    H     0.72943305773972 0.47740545676945 0.57130580591949 
H2    H     0.72299769676477 0.35793584953302 0.56071265021143 
H3    H     0.73322564306684 0.57558047243595 0.57580979700980 
H4    H     0.73680703338201 0.69529200329144 0.57003051553075 
H5    H     0.68392376928637 0.30325831537750 0.23325431822543 
H6    H     0.65264209407522 0.37159652387943 0.91504284834484 
H7    H     0.64008706952212 0.47843069070134 0.72851835770118 
H8    H     0.64597363866965 0.59965969291344 0.72628269066488 
H9    H     0.67050487868693 0.70063473855297 0.90590496755668 
H10   H     0.70532466807583 0.76011038958922 0.23594568537500 
C1    C     0.71250873767722 0.45529198519460 0.42641526249256 
C2    C     0.69500576696340 0.49561501929575 0.24766614149432 
C3    C     0.69846630451473 0.56706091523336 0.24751774471399 
C4    C     0.70872372583218 0.38727799458945 0.42124364230245 
C5    C     0.67326365922239 0.46429329025259 0.05945017243407 
C6    C     0.71896712666179 0.60194380623817 0.42877038995873 
C7    C     0.68048573331810 0.60404945933289 0.05718083752068 
C8    C     0.68689217423123 0.35673920098487 0.23707472139724 
C9    C     0.66949638483703 0.39478682107892 0.05882308054628 
C10   C     0.72115295339084 0.67016605276139 0.42536049377567 
C11   C     0.65579167772737 0.50355858950970 0.87258524913781 
C12   C     0.65921395683690 0.57056169290667 0.87098284992381 
C13   C     0.68386425179236 0.67351968794603 0.05512272577637 
C14   C     0.70347076365769 0.70650932927660 0.23750920682762 
