data_stdin
_audit_creation_method 'critic2'
_audit_creation_date 2023-8-11
_chemical_formula_sum 'C14 H10'
_cell_formula_units_Z 4
_cell_length_a         8.9807926364
_cell_length_b         5.6022261801
_cell_length_c        19.7080770934
_cell_angle_alpha        89.9998
_cell_angle_beta        73.2506
_cell_angle_gamma        90.0000
_cell_volume           949.493850
_space_group_crystal_system monoclinic
_space_group_IT_number 14
_space_group_name_H-M_alt 'P2_1/c'
_space_group_name_Hall '-P 2ybc'
loop_
_symmetry_equiv_pos_site_id
_symmetry_equiv_pos_as_xyz
 1 'x,y,z'
 2 '-x,-y,-z'
 3 '-x,-1/2+y,-1/2-z'
 4 'x,-1/2-y,-1/2+z'
loop_
_atom_site_label
_atom_site_type_symbol
_atom_site_fract_x
_atom_site_fract_y
_atom_site_fract_z
H1    H     0.08293148041784 0.33438445960996 0.16394424007045 
H2    H     0.10234048017614 0.33961291023113 0.03833313001496 
H3    H     0.08063625952452 0.33164547959831 0.26596853995619 
H4    H     0.06773555033218 0.30263792005554 0.39090361994679 
H5    H     0.25996293045751 0.03338997014498 0.95617838008391 
H6    H     0.39403875038028 0.71440990920290 0.00434825978506 
H7    H     0.45590655935715 0.52149648979400 0.10329306020738 
H8    H     0.43408650975244 0.49931846030489 0.23076113000978 
H9    H     0.34036460056606 0.65564902010433 0.34933675973746 
H10   H     0.19868200060451 0.96346279055132 0.43451366979026 
C1    C     0.15167704948032 0.19716686084116 0.13006415993981 
C2    C     0.22703197016690 0.01937675072288 0.15888164977405 
C3    C     0.21763098000488 0.00964613940875 0.23370608019134 
C4    C     0.16271522949406 0.20055271071411 0.05852025019033 
C5    C     0.31454321050825 0.84121364017339 0.11217285990732 
C6    C     0.13796027971548 0.18249606019233 0.28325054017631 
C7    C     0.29181732989151 0.81739667041639 0.25886277974197 
C8    C     0.25050567958869 0.02694467003945 0.01246194002199 
C9    C     0.32496422966543 0.84988599980657 0.03923656005368 
C10   C     0.13126979972992 0.16691597047110 0.35427322016187 
C11   C     0.38982595979373 0.65543165045124 0.13976509025267 
C12   C     0.37766235016789 0.64254601061668 0.21021097987002 
C13   C     0.28249123984508 0.80414619922210 0.33161588011151 
C14   C     0.20413658971493 0.97630441071362 0.37872154994864 
