data_stdin
_audit_creation_method 'critic2'
_audit_creation_date 2023-8-11
_chemical_formula_sum 'C14 H10'
_cell_formula_units_Z 4
_cell_length_a         8.3894494352
_cell_length_b         4.6876770717
_cell_length_c        24.4747867582
_cell_angle_alpha        89.9951
_cell_angle_beta        90.0064
_cell_angle_gamma        89.9998
_cell_volume           962.520658
_space_group_crystal_system orthorhombic
_space_group_IT_number 19
_space_group_name_H-M_alt 'P2_12_12_1'
_space_group_name_Hall 'P 2ac 2ab'
loop_
_symmetry_equiv_pos_site_id
_symmetry_equiv_pos_as_xyz
 1 'x,y,z'
 2 '-1/2-x,-y,-1/2+z'
 3 '-x,-1/2+y,-1/2-z'
 4 '-1/2+x,-1/2-y,-z'
loop_
_atom_site_label
_atom_site_type_symbol
_atom_site_fract_x
_atom_site_fract_y
_atom_site_fract_z
H1    H     0.81301536944695 0.00484101994363 0.40048428997031 
H2    H     0.02612016031542 0.14981275985435 0.33833350011688 
H3    H     0.63530293988621 0.89522293939022 0.44963742007993 
H4    H     0.41489250035346 0.77944722912499 0.51119416005085 
H5    H     0.97694254942874 0.51818576969712 0.26668274017023 
H6    H     0.70772285959325 0.73523430005779 0.25765787016986 
H7    H     0.43143171000894 0.77483269899126 0.28636742005584 
H8    H     0.21238655941192 0.64518113980146 0.34888002986001 
H9    H     0.11345509979690 0.38121578988284 0.42776430018795 
H10   H     0.15244067052887 0.02945572044580 0.50172828998357 
C1    C     0.78782302050451 0.16578738937624 0.36967373988580 
C2    C     0.63352617971900 0.28510455955160 0.36566832998088 
C3    C     0.50397200059431 0.20635926033385 0.40202452017379 
C4    C     0.90878590032886 0.24710920961854 0.33449412013110 
C5    C     0.60521458019456 0.49267014033533 0.32399667979572 
C6    C     0.52175373007479 0.00297827095487 0.44419321007652 
C7    C     0.35230619966277 0.34061315002315 0.39562868998485 
C8    C     0.88075543057085 0.45336967073799 0.29383589982053 
C9    C     0.73099707980359 0.57386033027589 0.28874933016803 
C10   C     0.39743195952683 0.93777127055052 0.47915766993844 
C11   C     0.45022988961149 0.61748431097827 0.31845901013616 
C12   C     0.32900469983675 0.54477899102353 0.35285588019882 
C13   C     0.22747465011792 0.27246810936751 0.43218896993707 
C14   C     0.24920942019935 0.07487656062210 0.47345658998553 
