data_stdin
_audit_creation_method 'critic2'
_audit_creation_date 2023-8-11
_chemical_formula_sum 'C14 H10'
_cell_formula_units_Z 4
_cell_length_a         7.6330561104
_cell_length_b        19.5798124408
_cell_length_c         6.2710843200
_cell_angle_alpha        89.9997
_cell_angle_beta        90.0000
_cell_angle_gamma        90.0006
_cell_volume           937.237426
_space_group_crystal_system orthorhombic
_space_group_IT_number 33
_space_group_name_H-M_alt 'Pna2_1'
_space_group_name_Hall 'P 2c -2n'
loop_
_symmetry_equiv_pos_site_id
_symmetry_equiv_pos_as_xyz
 1 'x,y,z'
 2 '-x,-y,-1/2+z'
 3 '-1/2-x,-1/2+y,-1/2+z'
 4 '-1/2+x,-1/2-y,z'
loop_
_atom_site_label
_atom_site_type_symbol
_atom_site_fract_x
_atom_site_fract_y
_atom_site_fract_z
H1    H     0.59377147073076 0.89365147073176 0.00184431629846 
H2    H     0.59408112834444 0.01827524902503 0.00526806463238 
H3    H     0.61231701793873 0.79159652835132 0.99816863731649 
H4    H     0.62490776949249 0.66668499613647 0.01391220855970 
H5    H     0.73558235051200 0.08211224625956 0.30433058704378 
H6    H     0.86592796986086 0.01790277959852 0.60842298787238 
H7    H     0.92412933960404 0.91170113561829 0.79129595157097 
H8    H     0.92739689094380 0.78518781116074 0.79774818461348 
H9    H     0.87546868904574 0.67670630593518 0.62739324230046 
H10   H     0.75642027458549 0.60779585865918 0.32762508484507 
C1    C     0.65453937035401 0.91991809909336 0.13543689943749 
C2    C     0.73025557003754 0.88191268602638 0.30349976905527 
C3    C     0.73479168958938 0.80772659574251 0.30599706263103 
C4    C     0.65536642176984 0.99069647209579 0.13626031342394 
C5    C     0.80409714199469 0.91873302713312 0.47874851783587 
C6    C     0.66968445037098 0.76724081159945 0.13739300566368 
C7    C     0.80885683335041 0.77361823419596 0.48596949345062 
C8    C     0.73337513717289 0.02654550106118 0.30594223941175 
C9    C     0.80597276928768 0.99097050135406 0.47484257657387 
C10   C     0.67735312519477 0.69661835747318 0.14546223854801 
C11   C     0.87347817262620 0.88225554385976 0.65758079532387 
C12   C     0.87535920061186 0.81266582139929 0.66081991209831 
C13   C     0.81583296342499 0.70155244508168 0.48987072346212 
C14   C     0.75089992279668 0.66327940385240 0.32262194214103 
