data_stdin
_audit_creation_method 'critic2'
_audit_creation_date 2023-8-11
_chemical_formula_sum 'C14 H10'
_cell_formula_units_Z 8
_cell_length_a        19.3330534502
_cell_length_b         9.3136702717
_cell_length_c        10.5142671201
_cell_angle_alpha        90.0000
_cell_angle_beta        89.9997
_cell_angle_gamma        90.0008
_cell_volume          1893.216656
_space_group_crystal_system orthorhombic
_space_group_IT_number 61
_space_group_name_H-M_alt 'Pbca'
_space_group_name_Hall '-P 2ac 2ab'
loop_
_symmetry_equiv_pos_site_id
_symmetry_equiv_pos_as_xyz
 1 'x,y,z'
 2 '-x,-y,-z'
 3 '-1/2+x,-1/2-y,-z'
 4 '-1/2-x,-1/2+y,z'
 5 '-x,-1/2+y,-1/2-z'
 6 'x,-1/2-y,-1/2+z'
 7 '-1/2-x,-y,-1/2+z'
 8 '-1/2+x,y,-1/2-z'
loop_
_atom_site_label
_atom_site_type_symbol
_atom_site_fract_x
_atom_site_fract_y
_atom_site_fract_z
H1    H     0.47793017013240 0.08589987036657 0.25076742969386 
H2    H     0.60336637003448 0.06523910948438 0.25227313986376 
H3    H     0.37485111010099 0.09005436955666 0.24278670968716 
H4    H     0.24833816986388 0.09959822994911 0.24955842001447 
H5    H     0.66142921998208 0.86793626998196 0.37264743031569 
H6    H     0.59000153015893 0.69371848021468 0.49577728031306 
H7    H     0.47861511007375 0.60794402985174 0.56924291966557 
H8    H     0.35115813014481 0.62751239021217 0.57623438998222 
H9    H     0.24473273005656 0.74304718032037 0.51012010990253 
H10   H     0.18193719983206 0.92844293032210 0.38542071013971 
C1    C     0.50128860021031 0.99705210976363 0.30226902976929 
C2    C     0.45927341986879 0.89864981048072 0.36918074009677 
C3    C     0.38431546990505 0.90809616960031 0.37080682973187 
C4    C     0.57267963986731 0.98557599023002 0.30287121003020 
C5    C     0.49252403001801 0.78762202997771 0.44019969983692 
C6    C     0.34716398999396 0.01228807044871 0.30079995023399 
C7    C     0.34599413013624 0.80898942024120 0.44677149013011 
C8    C     0.60522014004391 0.87490973038052 0.37151812031998 
C9    C     0.56556901995570 0.77794955991326 0.43946403969454 
C10   C     0.27561189981919 0.01864073049921 0.30496100022260 
C11   C     0.45188053988650 0.68956372046095 0.51369064029218 
C12   C     0.38155960988936 0.70048969961418 0.51763904037255 
C13   C     0.27305763009351 0.81960492051986 0.45165713025504 
C14   C     0.23811631983609 0.92223717048298 0.38173266011031 
