data_stdin
_audit_creation_method 'critic2'
_audit_creation_date 2023-8-11
_chemical_formula_sum 'C14 H10'
_cell_formula_units_Z 8
_cell_length_a        27.6075929311
_cell_length_b         5.0304937298
_cell_length_c        13.8839834867
_cell_angle_alpha        90.0010
_cell_angle_beta        77.4368
_cell_angle_gamma        89.9801
_cell_volume          1882.037657
_space_group_crystal_system triclinic
_space_group_IT_number 2
_space_group_name_H-M_alt 'P-1'
_space_group_name_Hall '-P 1'
loop_
_symmetry_equiv_pos_site_id
_symmetry_equiv_pos_as_xyz
 1 'x,y,z'
 2 '-x,-y,-z'
 3 '-1/2+x,-1/2+y,z'
 4 '-1/2-x,-1/2-y,-z'
loop_
_atom_site_label
_atom_site_type_symbol
_atom_site_fract_x
_atom_site_fract_y
_atom_site_fract_z
H1    H     0.05203691006267 0.51998365948086 0.41296443036365 
H2    H     0.94794825010009 0.51999850927110 0.08698229992581 
H3    H     0.08928589001720 0.82829901030933 0.28020959976869 
H4    H     0.91068039991157 0.82830916951974 0.21978023971200 
H5    H     0.02400274004612 0.26463546907275 0.51984131031394 
H6    H     0.97599892010559 0.26462075962260 0.98008687022475 
H7    H     0.99145902981829 0.93840029046836 0.64784394013017 
H8    H     0.00856702003105 0.93833713925499 0.85206489984719 
H9    H     0.18011922995824 0.83656053076164 0.21550252025407 
H10   H     0.81985140014888 0.83655326018379 0.28456142983270 
H11   H     0.23466814991367 0.53010731940640 0.28515457983056 
H12   H     0.76532508991898 0.53012120934635 0.21492712991932 
H13   H     0.24548944005714 0.18193360017626 0.40108517006585 
H14   H     0.75452727997935 0.18198659046697 0.09897595973444 
H15   H     0.21040436990538 0.86338580920551 0.53273079994759 
H16   H     0.78963334004361 0.86341962052927 0.96729727002409 
H17   H     0.13946120991496 0.66198044008768 0.64329278004094 
H18   H     0.86058953012976 0.66198245910423 0.85668550984280 
H19   H     0.04916108002544 0.62886055049200 0.70958409977125 
H20   H     0.95089046989907 0.62881502963501 0.79034454017296 
C1    C     0.09204964009681 0.51826668998681 0.38555531974574 
C2    C     0.90793773990218 0.51828258977536 0.11442081033034 
C3    C     0.12175006983946 0.34149739052796 0.42686177981956 
C4    C     0.87825075016884 0.34151569023825 0.07312791974517 
C5    C     0.10127008985368 0.15567359961622 0.50514307031185 
C6    C     0.89874284987587 0.15568063011218 0.99482709002655 
C7    C     0.11276647985221 0.69323780958744 0.31100911029925 
C8    C     0.88721002007844 0.69325170976238 0.18899133964264 
C9    C     0.17422180989461 0.34751601999759 0.38936651993881 
C10   C     0.82578091989823 0.34754395959687 0.11065808003624 
C11   C     0.04992304012363 0.13543193947326 0.54607745003554 
C12   C     0.95008973996056 0.13541184020250 0.95386531027020 
C13   C     0.13391560004069 0.98214647084623 0.54220618987492 
C14   C     0.86611104992198 0.98216095927785 0.95777740988628 
C15   C     0.16441098006765 0.69747802903366 0.27404453998773 
C16   C     0.83556782988381 0.69748587048137 0.22599546029121 
C17   C     0.19455112993847 0.52682498929909 0.31272521986244 
C18   C     0.80544067016226 0.52684072921735 0.18732744010807 
C19   C     0.03132216000070 0.95001618085745 0.61839750033025 
C20   C     0.96870422984903 0.94997271936350 0.88153214019194 
C21   C     0.20555758994622 0.17310751911707 0.43001593032870 
C22   C     0.79445826012856 0.17315064076640 0.07001870976076 
C23   C     0.18623677012964 0.99760782999191 0.50311447988712 
C24   C     0.81379041983413 0.99764431969846 0.99690005027447 
C25   C     0.11420625016250 0.79492205978550 0.61630674011279 
C26   C     0.88583403010823 0.79491780034098 0.88366050011259 
C27   C     0.06363671987031 0.77707804044070 0.65359724022616 
C28   C     0.93640368992818 0.77704279927663 0.84634505993184 
