data_stdin
_audit_creation_method 'critic2'
_audit_creation_date 2023-8-11
_chemical_formula_sum 'C14 H10'
_cell_formula_units_Z 4
_cell_length_a        12.2720999460
_cell_length_b         5.6525997810
_cell_length_c        16.9745484441
_cell_angle_alpha        90.0006
_cell_angle_beta        53.2910
_cell_angle_gamma        90.0012
_cell_volume           943.990458
_space_group_crystal_system monoclinic
_space_group_IT_number 14
_space_group_name_H-M_alt 'P2_1/c'
_space_group_name_Hall '-P 2ybc'
loop_
_symmetry_equiv_pos_site_id
_symmetry_equiv_pos_as_xyz
 1 'x,y,z'
 2 '-x,-y,-z'
 3 '-x,-1/2+y,-1/2-z'
 4 'x,-1/2-y,-1/2+z'
loop_
_atom_site_label
_atom_site_type_symbol
_atom_site_fract_x
_atom_site_fract_y
_atom_site_fract_z
H1    H     0.20065418980932 0.13752442931335 0.11100364978643 
H2    H     0.95438871044606 0.12268021070874 0.23102795985715 
H3    H     0.40198288017418 0.14360823922844 0.00325266029318 
H4    H     0.64777496996281 0.19010585045511 0.88409885996309 
H5    H     0.80758520944625 0.42341164017286 0.22628333023985 
H6    H     0.91510684977550 0.74637286050284 0.10377792031962 
H7    H     0.11538152994895 0.94818350919145 0.96808040013792 
H8    H     0.36481994047537 0.97914292989162 0.84695687973916 
H9    H     0.59046599061159 0.83457503972227 0.77736302965870 
H10   H     0.74566252994765 0.53647368030751 0.77033059972108 
C1    C     0.14006100989139 0.27245035926637 0.10807307965387 
C2    C     0.20439015993027 0.45187141995710 0.03578490002183 
C3    C     0.35087819967620 0.46575914009614 0.96243576035695 
C4    C     0.99987939039407 0.26327892087383 0.17630629995605 
C5    C     0.12046300981681 0.62808320984627 0.03625702988952 
C6    C     0.44141264989132 0.29596158953361 0.95460797014849 
C7    C     0.40724260999936 0.66085454988846 0.89567394012659 
C8    C     0.91777635027337 0.43374312932083 0.17452774003659 
C9    C     0.97772854015027 0.61369155070105 0.10585430984381 
C10   C     0.58064599014983 0.32101547917721 0.88668807981843 
C11   C     0.18161657021565 0.81640900922023 0.96611318011957 
C12   C     0.31915226055776 0.83361159947462 0.89921861970426 
C13   C     0.54999415051557 0.68295109009629 0.82695462973793 
C14   C     0.63594342981148 0.51661306998829 0.82274614994155 
