data_stdin
_audit_creation_method 'critic2'
_audit_creation_date 2023-8-11
_chemical_formula_sum 'C14 H10'
_cell_formula_units_Z 4
_cell_length_a         3.8534396329
_cell_length_b        11.9869636455
_cell_length_c        19.9446313906
_cell_angle_alpha        89.9987
_cell_angle_beta        81.4450
_cell_angle_gamma        90.0013
_cell_volume           911.012979
_space_group_crystal_system monoclinic
_space_group_IT_number 14
_space_group_name_H-M_alt 'P2_1/c'
_space_group_name_Hall '-P 2ybc'
loop_
_symmetry_equiv_pos_site_id
_symmetry_equiv_pos_as_xyz
 1 'x,y,z'
 2 '-x,-y,-z'
 3 '-x,-1/2+y,-1/2-z'
 4 'x,-1/2-y,-1/2+z'
loop_
_atom_site_label
_atom_site_type_symbol
_atom_site_fract_x
_atom_site_fract_y
_atom_site_fract_z
H1    H     0.77050849011827 0.06458743974192 0.00150766992882 
H2    H     0.59872247881822 0.14470321031949 0.11418304001840 
H3    H     0.91312491105523 0.00410230998283 0.90902776994847 
H4    H     0.07243287111040 0.93284451012740 0.79367597006438 
H5    H     0.32997355938079 0.33444793981444 0.12757668014356 
H6    H     0.23166222007441 0.44140236029593 0.02541908993706 
H7    H     0.27081015966601 0.45866099989359 0.90311258984585 
H8    H     0.43532039987584 0.38173814988194 0.78805145998199 
H9    H     0.69333318007248 0.23408883030889 0.71263577999675 
H10   H     0.96914381922767 0.04682757003354 0.69441239015960 
C1    C     0.65499108029909 0.14748542004424 0.00580424019822 
C2    C     0.60572236056629 0.20651103960540 0.94665782980742 
C3    C     0.70605672919015 0.16170464036276 0.87892346986098 
C4    C     0.55846370905177 0.19276477037414 0.06967272010982 
C5    C     0.44976033898133 0.31472109993919 0.95452480025796 
C6    C     0.86302916984233 0.05576469009426 0.86675038024172 
C7    C     0.64425427990841 0.22661189001491 0.82183968019203 
C8    C     0.40615376109070 0.29945898960564 0.07717473002242 
C9    C     0.35202569953090 0.35901783968099 0.02031511980092 
C10   C     0.95332857095370 0.01503948019047 0.80158948007474 
C11   C     0.39256337083356 0.37664117013373 0.89578405024063 
C12   C     0.48469254099496 0.33422011975946 0.83221290001831 
C13   C     0.74180916051919 0.18360949012144 0.75572672998711 
C14   C     0.89411848925269 0.07942545988768 0.74546814987988 
