data_stdin
_audit_creation_method 'critic2'
_audit_creation_date 2023-8-11
_chemical_formula_sum 'C14 H10'
_cell_formula_units_Z 4
_cell_length_a        12.4743875792
_cell_length_b        13.0264214501
_cell_length_c         6.0263702148
_cell_angle_alpha        89.9994
_cell_angle_beta       104.6107
_cell_angle_gamma        89.9998
_cell_volume           947.597462
_space_group_crystal_system monoclinic
_space_group_IT_number 14
_space_group_name_H-M_alt 'P2_1/c'
_space_group_name_Hall '-P 2ybc'
loop_
_symmetry_equiv_pos_site_id
_symmetry_equiv_pos_as_xyz
 1 'x,y,z'
 2 '-x,-y,-z'
 3 '-1/2-x,-1/2+y,-1/2-z'
 4 '-1/2+x,-1/2-y,-1/2+z'
loop_
_atom_site_label
_atom_site_type_symbol
_atom_site_fract_x
_atom_site_fract_y
_atom_site_fract_z
H1    H     0.86325666045535 0.51765260033660 0.57211418058662 
H2    H     0.70098275975972 0.63005500992501 0.47742560919237 
H3    H     0.99385406012669 0.42379491988570 0.65793002069011 
H4    H     0.15412435016100 0.31014362007350 0.77685354085689 
H5    H     0.56422337027627 0.62956325034838 0.71416942977252 
H6    H     0.59455858993313 0.51434741966469 0.05611455043750 
H7    H     0.69834335009875 0.38226302004964 0.29680384948200 
H8    H     0.86056026984127 0.26673063998473 0.40601334955454 
H9    H     0.03467652009751 0.20252149975117 0.34572510045695 
H10   H     0.17671445964243 0.19898002029777 0.12500569956043 
C1    C     0.80462585987621 0.51485335001998 0.67812323001648 
C2    C     0.82333859016936 0.44770557035961 0.86808760958351 
C3    C     0.91878815958267 0.37997982008273 0.93163744966511 
C4    C     0.71279692021641 0.57845390037563 0.62361399022016 
C5    C     0.74465127010253 0.44780357034723 0.00408842929819 
C6    C     0.00101190991410 0.37547236000922 0.80804090960780 
C7    C     0.93163945987942 0.31543699971087 0.12857847999456 
C8    C     0.63582476973232 0.57881002977504 0.75879491940334 
C9    C     0.65230339988493 0.51451293017270 0.94708357951414 
C10   C     0.09174028007007 0.31107071022792 0.87463502083887 
C11   C     0.75991528000236 0.38054598999010 0.19710861027293 
C12   C     0.84947668988441 0.31698568024040 0.25723974082141 
C13   C     0.02528469000085 0.25062660963745 0.19404707944809 
C14   C     0.10450192962413 0.24837934007307 0.06972527014877 
