data_stdin
_audit_creation_method 'critic2'
_audit_creation_date 2023-8-11
_chemical_formula_sum 'C14 H10'
_cell_formula_units_Z 2
_cell_length_a         8.9191958104
_cell_length_b         6.1237703500
_cell_length_c         9.7787823051
_cell_angle_alpha        89.9999
_cell_angle_beta       113.2673
_cell_angle_gamma        89.9999
_cell_volume           490.670324
_space_group_crystal_system monoclinic
_space_group_IT_number 7
_space_group_name_H-M_alt 'Pc'
_space_group_name_Hall 'P -2yc'
loop_
_symmetry_equiv_pos_site_id
_symmetry_equiv_pos_as_xyz
 1 'x,y,z'
 2 'x,-y,-1/2+z'
loop_
_atom_site_label
_atom_site_type_symbol
_atom_site_fract_x
_atom_site_fract_y
_atom_site_fract_z
H1    H     0.01139208938962 0.62566890946607 0.98631288960363 
H2    H     0.76910046993648 0.71617038982642 0.76569268976430 
H3    H     0.19710586008580 0.55785641951768 0.18165141039543 
H4    H     0.42326312005706 0.45630567965522 0.41340858965597 
H5    H     0.52634326038527 0.47140146069538 0.67910449046142 
H6    H     0.53244773994402 0.12689806015631 0.81746395040309 
H7    H     0.67389490995273 0.87365940943797 0.01696010989677 
H8    H     0.91150441008611 0.77458358045029 0.24361939976970 
H9    H     0.17568004951772 0.86108277019986 0.43504594992385 
H10   H     0.41489943951727 0.10736369013265 0.54357285003258 
C1    C     0.90802898993216 0.51441943959230 0.95174595981986 
C2    C     0.91400835055118 0.32325544991103 0.03463837036688 
C3    C     0.05279712996480 0.26730540959355 0.17047508024280 
C4    C     0.77097593983775 0.56620051944598 0.82591659954808 
C5    C     0.77577934019983 0.18054917048180 0.98251234022833 
C6    C     0.19075724037590 0.40408702006244 0.23494184987701 
C7    C     0.04917197999401 0.06782935928046 0.24521228962477 
C8    C     0.63413568004942 0.42760742985388 0.77696477949916 
C9    C     0.63717971036630 0.23687650013684 0.85387218969401 
C10   C     0.31855125997730 0.34773479989500 0.36695249049273 
C11   C     0.77880242034508 0.98224225050712 0.06072788050066 
C12   C     0.91037697925184 0.92703628003769 0.18604286960029 
C13   C     0.18143979948369 0.01307972927426 0.37938003999592 
C14   C     0.31423870034882 0.15094397938689 0.43990798040606 
