data_stdin
_audit_creation_method 'critic2'
_audit_creation_date 2023-8-11
_chemical_formula_sum 'C14 H10'
_cell_formula_units_Z 8
_cell_length_a         8.4137768831
_cell_length_b        41.3059979233
_cell_length_c         5.9461073180
_cell_angle_alpha        89.9982
_cell_angle_beta        90.0018
_cell_angle_gamma        90.0044
_cell_volume          2066.506862
_space_group_crystal_system orthorhombic
_space_group_IT_number 62
_space_group_name_H-M_alt 'Pnma'
_space_group_name_Hall '-P 2ac 2n'
loop_
_symmetry_equiv_pos_site_id
_symmetry_equiv_pos_as_xyz
 1 'x,y,z'
 2 '-x,-y,-z'
 3 '-1/2-x,-y,-1/2+z'
 4 '-1/2+x,y,-1/2-z'
 5 '-1/2+x,-1/2-y,-1/2-z'
 6 '-1/2-x,-1/2+y,-1/2+z'
 7 '-x,-1/2+y,-z'
 8 'x,-1/2-y,z'
loop_
_atom_site_label
_atom_site_type_symbol
_atom_site_fract_x
_atom_site_fract_y
_atom_site_fract_z
H1    H     0.47821922969521 0.91713073987903 0.88588991060854 
H2    H     0.53113477049711 0.97499022993348 0.85078705937937 
H3    H     0.43472268956204 0.86922636989168 0.90118725973017 
H4    H     0.37454893028425 0.81145285990740 0.89892704023780 
H5    H     0.68007903945772 0.99668806995197 0.51882289006841 
H6    H     0.77731114975885 0.95862183009591 0.22490569058171 
H7    H     0.79995301034280 0.90504111997795 0.07118394055910 
H8    H     0.74288297994394 0.84652295011708 0.08594290996840 
H9    H     0.61703472019513 0.80056327011817 0.26447495937641 
H10   H     0.46420254978306 0.77633800007400 0.58156353068955 
C1    C     0.54450543012989 0.92569630008877 0.74071451063566 
C2    C     0.59620674031860 0.90359809998216 0.57433794978705 
C3    C     0.56235516042876 0.86909518002276 0.58336521919919 
C4    C     0.57437936983016 0.95857516998782 0.72115448070693 
C5    C     0.68123384056239 0.91615670995282 0.38546725044972 
C6    C     0.47625759015490 0.85463089007011 0.76095043932154 
C7    C     0.61430948985870 0.84887294011308 0.40261664948179 
C8    C     0.65840468006446 0.97080589994361 0.53472600013404 
C9    C     0.71134634942502 0.94977203995683 0.37017905032995 
C10   C     0.44238343980799 0.82179779007940 0.76068976011728 
C11   C     0.73441486955455 0.89480239995584 0.21184111052255 
C12   C     0.70255169984280 0.86246985003286 0.22002475992635 
C13   C     0.57746209017107 0.81546211990289 0.40515632059894 
C14   C     0.49267595969084 0.80205614000721 0.58142401962252 
