data_stdin
_audit_creation_method 'critic2'
_audit_creation_date 2023-8-11
_chemical_formula_sum 'C14 H10'
_cell_formula_units_Z 4
_cell_length_a         7.9688155232
_cell_length_b         7.9108427200
_cell_length_c        15.6046800598
_cell_angle_alpha        89.9999
_cell_angle_beta        90.7403
_cell_angle_gamma        90.0001
_cell_volume           983.637646
_space_group_crystal_system monoclinic
_space_group_IT_number 14
_space_group_name_H-M_alt 'P2_1/c'
_space_group_name_Hall '-P 2ybc'
loop_
_symmetry_equiv_pos_site_id
_symmetry_equiv_pos_as_xyz
 1 'x,y,z'
 2 '-x,-y,-z'
 3 '-x,-1/2+y,-1/2-z'
 4 'x,-1/2-y,-1/2+z'
loop_
_atom_site_label
_atom_site_type_symbol
_atom_site_fract_x
_atom_site_fract_y
_atom_site_fract_z
H1    H     0.80299146002060 0.47112657028950 0.19140474977353 
H2    H     0.58070260004980 0.50388532987662 0.08400888968739 
H3    H     0.99572915049769 0.44019092032361 0.27441326986732 
H4    H     0.22595821959738 0.42797722996736 0.37874799977902 
H5    H     0.62931977994171 0.66870467962381 0.94994179979294 
H6    H     0.90666419967162 0.80343005058090 0.92669488026880 
H7    H     0.18890081026297 0.86656780994562 0.97400425979327 
H8    H     0.41688646002199 0.85129769949402 0.08279422019762 
H9    H     0.52145800943448 0.76069725002279 0.22268722988820 
H10   H     0.48905304968844 0.59511197969037 0.35593971980792 
C1    C     0.82837623005372 0.54498931062125 0.13422692013488 
C2    C     0.98696009037856 0.62136277937826 0.12314294019971 
C3    C     0.12209524031754 0.60901115060681 0.18631768990915 
C4    C     0.70195644007162 0.56268757003886 0.07318508023179 
C5    C     0.01351645029554 0.71690465052506 0.04682265982326 
C6    C     0.10885060999516 0.51272764016561 0.26225644021437 
C7    C     0.27578144020123 0.69721660968978 0.17170229994633 
C8    C     0.72892864009504 0.65641745963495 0.99794450019256 
C9    C     0.88311445993606 0.73152124043482 0.98488508969957 
C10   C     0.23903024946988 0.50633386019037 0.32186212008209 
C11   C     0.17140059964814 0.79812971005696 0.03366534988479 
C12   C     0.29678153991380 0.78984713999829 0.09374830010502 
C13   C     0.40594720036766 0.69127859991097 0.23422838999969 
C14   C     0.38758698996385 0.59847116060349 0.30852920004912 
