data_stdin
_audit_creation_method 'critic2'
_audit_creation_date 2023-8-11
_chemical_formula_sum 'C14 H10'
_cell_formula_units_Z 8
_cell_length_a        19.9892256340
_cell_length_b         5.6796300304
_cell_length_c        17.8610743511
_cell_angle_alpha        89.9998
_cell_angle_beta        70.1078
_cell_angle_gamma        90.0004
_cell_volume          1906.803200
_space_group_crystal_system monoclinic
_space_group_IT_number 15
_space_group_name_H-M_alt 'C2/c'
_space_group_name_Hall '-C 2yc'
loop_
_symmetry_equiv_pos_site_id
_symmetry_equiv_pos_as_xyz
 1 'x,y,z'
 2 '-1/2-x,-1/2-y,-z'
 3 '-x,y,-1/2-z'
 4 'x,-y,-1/2+z'
 5 '-1/2+x,-1/2+y,z'
 6 '-x,-y,-z'
 7 '-1/2-x,-1/2+y,-1/2-z'
 8 '-1/2+x,-1/2-y,-1/2+z'
loop_
_atom_site_label
_atom_site_type_symbol
_atom_site_fract_x
_atom_site_fract_y
_atom_site_fract_z
H1    H     0.25907407985067 0.62995192953217 0.29054705992781 
H2    H     0.37971196983800 0.62164213921995 0.29440171002620 
H3    H     0.15951921010395 0.63095469028085 0.28968944985326 
H4    H     0.03795347003460 0.61881945922000 0.28969423971244 
H5    H     0.41726826984633 0.30245863031563 0.36872919975683 
H6    H     0.33208609008343 0.98673490952647 0.43475881988724 
H7    H     0.21604625994044 0.80042657024086 0.46675230971245 
H8    H     0.09387292986435 0.79496957047534 0.46309021992458 
H9    H     0.00038767002088 0.97158899012009 0.42379396028721 
H10   H     0.95619041021351 0.28959288971973 0.35661400974069 
C1    C     0.27397238999376 0.48780075912556 0.32239095984654 
C2    C     0.22402776988335 0.31114924038239 0.35995168997274 
C3    C     0.15178928007613 0.30958318027409 0.35837268993634 
C4    C     0.34250627982889 0.48398230993943 0.32487792001338 
C5    C     0.24625933007694 0.12605387957416 0.40034337999742 
C6    C     0.12553828983972 0.48597893036418 0.31987867003344 
C7    C     0.10514998987374 0.12143301066360 0.39645245976601 
C8    C     0.36369061001045 0.30358255032899 0.36597870026041 
C9    C     0.31619812997316 0.12729331017641 0.40282554027138 
C10   C     0.05631243989019 0.47921123923658 0.31970973983207 
C11   C     0.19757640997029 0.94141034923063 0.43745367007859 
C12   C     0.13004366000766 0.93828041955195 0.43545774974951 
C13   C     0.03493155001465 0.11732153944993 0.39475161984222 
C14   C     0.01041748006352 0.29405701936118 0.35738826991708 
