data_stdin
_audit_creation_method 'critic2'
_audit_creation_date 2023-8-11
_chemical_formula_sum 'C14 H10'
_cell_formula_units_Z 8
_cell_length_a        18.8934531213
_cell_length_b         6.7656351504
_cell_length_c        14.9084014673
_cell_angle_alpha        89.9979
_cell_angle_beta        81.5260
_cell_angle_gamma        90.0006
_cell_volume          1884.879952
_space_group_crystal_system monoclinic
_space_group_IT_number 15
_space_group_name_H-M_alt 'C2/c'
_space_group_name_Hall '-C 2yc'
loop_
_symmetry_equiv_pos_site_id
_symmetry_equiv_pos_as_xyz
 1 'x,y,z'
 2 '-x,-y,-z'
 3 '-x,y,-1/2-z'
 4 'x,-y,-1/2+z'
 5 '-1/2+x,-1/2+y,z'
 6 '-1/2-x,-1/2-y,-z'
 7 '-1/2-x,-1/2+y,-1/2-z'
 8 '-1/2+x,-1/2-y,-1/2+z'
loop_
_atom_site_label
_atom_site_type_symbol
_atom_site_fract_x
_atom_site_fract_y
_atom_site_fract_z
H1    H     0.33423293989561 0.37935535969949 0.56574764005910 
H2    H     0.45871382014682 0.41560011927747 0.59069226002950 
H3    H     0.23127332988361 0.35076132014933 0.55453164993946 
H4    H     0.10378344016977 0.32573025997813 0.54185670011967 
H5    H     0.49951239007275 0.72593847950616 0.65891530012949 
H6    H     0.41350706989736 0.00132176926605 0.69767437967723 
H7    H     0.29530641004926 0.14405237033150 0.70207293979542 
H8    H     0.16799777979447 0.11085670972036 0.68555217997910 
H9    H     0.06930793007910 0.91580814945052 0.64716084982977 
H10   H     0.02134742019728 0.60625727926097 0.58776800009233 
C1    C     0.35093077987398 0.51698185980923 0.59386320033396 
C2    C     0.30070058990995 0.67040827071879 0.61580303013260 
C3    C     0.22573667018132 0.65092546022768 0.60576545987362 
C4    C     0.42126356005904 0.53656284033422 0.60848297007995 
C5    C     0.32478618987338 0.84926988053767 0.65224743029346 
C6    C     0.19675893985366 0.47682106043269 0.57367770033781 
C7    C     0.17818805001658 0.81160946993829 0.63218836028197 
C8    C     0.44443756015047 0.71157170070547 0.64616961979314 
C9    C     0.39674621020068 0.86567592952020 0.66733499020826 
C10   C     0.12462017025373 0.46152146942464 0.56724465971067 
C11   C     0.27559652001528 0.00838941011487 0.67518764027699 
C12   C     0.20517135996131 0.99009143024810 0.66581813002398 
C13   C     0.10460531978882 0.79190864016121 0.62570860992583 
C14   C     0.07794949975214 0.62004144018067 0.59333615036087 
