data_stdin
_audit_creation_method 'critic2'
_audit_creation_date 2023-8-11
_chemical_formula_sum 'C14 H10'
_cell_formula_units_Z 4
_cell_length_a        19.3254084973
_cell_length_b         6.0103336202
_cell_length_c         8.3153379700
_cell_angle_alpha        89.9996
_cell_angle_beta        83.4479
_cell_angle_gamma        89.9996
_cell_volume           959.536035
_space_group_crystal_system monoclinic
_space_group_IT_number 14
_space_group_name_H-M_alt 'P2_1/c'
_space_group_name_Hall '-P 2ybc'
loop_
_symmetry_equiv_pos_site_id
_symmetry_equiv_pos_as_xyz
 1 'x,y,z'
 2 '-x,-y,-z'
 3 '-x,-1/2+y,-1/2-z'
 4 'x,-1/2-y,-1/2+z'
loop_
_atom_site_label
_atom_site_type_symbol
_atom_site_fract_x
_atom_site_fract_y
_atom_site_fract_z
H1    H     0.78464485005793 0.09836393966868 0.47126698991039 
H2    H     0.90953437018206 0.10126911942482 0.49233336990765 
H3    H     0.68098145988067 0.11425191947092 0.46194181944269 
H4    H     0.55584564022410 0.15008115048022 0.45123845984820 
H5    H     0.98357520987035 0.42017923022848 0.38212194972953 
H6    H     0.92932233994697 0.73473614954670 0.24879776058473 
H7    H     0.82929741022640 0.91115990928682 0.15282841955189 
H8    H     0.70283928002813 0.92433030930965 0.13423366030677 
H9    H     0.58799586000775 0.77124055061472 0.19378240052429 
H10   H     0.50731813012383 0.47997221058800 0.31757021000316 
C1    C     0.81541016999881 0.23844892983146 0.42090896951521 
C2    C     0.78311278011987 0.41514837004956 0.34572587038102 
C3    C     0.70855881985332 0.42385269000708 0.33539033996634 
C4    C     0.88638564005370 0.23916820029261 0.43262137058749 
C5    C     0.82581135018066 0.59562919068909 0.28128318983461 
C6    C     0.66167505017575 0.25858433003560 0.40215855961033 
C7    C     0.68050505010554 0.61159158934386 0.25956534047499 
C8    C     0.92803270999243 0.41848725027074 0.37056386035936 
C9    C     0.89793570991173 0.59382483031340 0.29627803976741 
C10   C     0.59057806012663 0.27836270961640 0.39590524009558 
C11   C     0.79553411015431 0.77722086006681 0.20288861945444 
C12   C     0.72569559022106 0.78472864950520 0.19252850001635 
C13   C     0.60784484016997 0.62679798965902 0.25313711964368 
C14   C     0.56324199019666 0.46372000922784 0.32094961005112 
