data_stdin
_audit_creation_method 'critic2'
_audit_creation_date 2023-8-11
_chemical_formula_sum 'C14 H10'
_cell_formula_units_Z 4
_cell_length_a        13.0461006624
_cell_length_b        17.5745355192
_cell_length_c         5.5282665006
_cell_angle_alpha        89.9999
_cell_angle_beta        49.6377
_cell_angle_gamma        89.9757
_cell_volume           965.802073
_space_group_crystal_system triclinic
_space_group_IT_number 2
_space_group_name_H-M_alt 'P-1'
_space_group_name_Hall '-P 1'
loop_
_symmetry_equiv_pos_site_id
_symmetry_equiv_pos_as_xyz
 1 'x,y,z'
 2 '-x,-y,-z'
loop_
_atom_site_label
_atom_site_type_symbol
_atom_site_fract_x
_atom_site_fract_y
_atom_site_fract_z
H1    H     0.37343426025766 0.78987900019231 0.57726983911834 
H2    H     0.62702061017405 0.28986190018497 0.92207898040015 
H3    H     0.61766615013385 0.79285113026704 0.21009673053361 
H4    H     0.38277891005302 0.29283191028289 0.28921887918387 
H5    H     0.17169406019621 0.79208792983208 0.87851050973274 
H6    H     0.82875444995533 0.29207392017463 0.62086015115836 
H7    H     0.92762996944762 0.79394143016690 0.22581651078069 
H8    H     0.07281301997778 0.29393769028222 0.27359366965150 
H9    H     0.74555722989380 0.86717104997737 0.70233453117127 
H10   H     0.25472519002451 0.36716986988509 0.79718290078963 
H11   H     0.62094081010599 0.93524031974179 0.57005623992102 
H12   H     0.37918579999378 0.43524630994293 0.92970751034910 
H13   H     0.41154890945602 0.96771960002966 0.68771792114145 
H14   H     0.58850370961233 0.46773049015718 0.81219671070304 
H15   H     0.16382866005442 0.96460429998037 0.04418344007188 
H16   H     0.83622801013787 0.46460972016540 0.45577752050271 
H17   H     0.94833928047699 0.92788052984328 0.54150799916761 
H18   H     0.05180023034046 0.42788814982419 0.95835419964030 
H19   H     0.81147174954404 0.86305956020908 0.06630088108456 
H20   H     0.18881544047103 0.36306138981094 0.43335715941448 
C1    C     0.42531896947761 0.82193569002459 0.35832181052668 
C2    C     0.57506154978128 0.32192422989097 0.14111784005250 
C3    C     0.35151181979827 0.86033077974771 0.28977694978400 
C4    C     0.64878262999360 0.36032684973069 0.20979527084492 
C5    C     0.20537427022586 0.85975133997355 0.50322726896758 
C6    C     0.79492098967540 0.35974962019818 0.99636055036967 
C7    C     0.56462113995269 0.82385971016651 0.14982366989734 
C8    C     0.43575513003099 0.32384695991370 0.34959548926093 
C9    C     0.42468517003337 0.90098123015360 0.99695451900578 
C10   C     0.57551847038916 0.40098405004899 0.50273329949066 
C11   C     0.12506035012185 0.82232417990448 0.80027261985973 
C12   C     0.87531828981633 0.32231780026998 0.69920480934139 
C13   C     0.13894080014633 0.89839946025733 0.41115217084284 
C14   C     0.86126631005216 0.39840369973369 0.08857574094084 
C15   C     0.63615320990141 0.86511484019583 0.86426311108442 
C16   C     0.36413315991252 0.36510958976645 0.63527126894098 
C17   C     0.56673787012522 0.90296033998786 0.79000186942950 
C18   C     0.43346233008547 0.40296180981406 0.70966773902334 
C19   C     0.98590168005341 0.82353719015459 0.99923278947865 
C20   C     0.01447355019440 0.32353511974109 0.50026989025114 
C21   C     0.35350921962157 0.93856324002754 0.91508462069675 
C22   C     0.64660885954072 0.43857277980548 0.58473857085685 
C23   C     0.21665266989051 0.93690717004180 0.11190423100920 
C24   C     0.78346816954898 0.43691503980107 0.38793959041609 
C25   C     0.99682740005503 0.89834997019251 0.61719624087003 
C26   C     0.00337970985662 0.39835672008058 0.88255137958630 
C27   C     0.92091240003447 0.86205685994985 0.90834860905901 
C28   C     0.07937742964634 0.36206031984202 0.59128803046644 
