data_stdin
_audit_creation_method 'critic2'
_audit_creation_date 2023-8-11
_chemical_formula_sum 'C14 H10'
_cell_formula_units_Z 4
_cell_length_a        19.1681623503
_cell_length_b         5.8806188215
_cell_length_c         8.5222645717
_cell_angle_alpha        90.0000
_cell_angle_beta        80.7949
_cell_angle_gamma        89.9991
_cell_volume           948.264214
_space_group_crystal_system monoclinic
_space_group_IT_number 14
_space_group_name_H-M_alt 'P2_1/c'
_space_group_name_Hall '-P 2ybc'
loop_
_symmetry_equiv_pos_site_id
_symmetry_equiv_pos_as_xyz
 1 'x,y,z'
 2 '-x,-y,-z'
 3 '-x,-1/2+y,-1/2-z'
 4 'x,-1/2-y,-1/2+z'
loop_
_atom_site_label
_atom_site_type_symbol
_atom_site_fract_x
_atom_site_fract_y
_atom_site_fract_z
H1    H     0.71766768980200 0.59809448960824 0.66608120058359 
H2    H     0.59202417978518 0.59248262036483 0.77118354993615 
H3    H     0.82177470005585 0.61730056000369 0.58214310982750 
H4    H     0.94772004000283 0.66002375944505 0.48328739990021 
H5    H     0.51233579981669 0.90252020976231 0.70595285034974 
H6    H     0.56282867995197 0.22471860973146 0.53395841955770 
H7    H     0.66222406022983 0.41295937026436 0.37466394020853 
H8    H     0.78978807018209 0.43513016965619 0.27140954971360 
H9    H     0.90762160975408 0.28654647982531 0.24994121007251 
H10   H     0.99272644008034 0.99608100012590 0.31645309946982 
C1    C     0.68481551991068 0.73644519019392 0.63518474978453 
C2    C     0.71498948019219 0.91607983919819 0.53708123014343 
C3    C     0.79012441011714 0.92917958008203 0.47560212036474 
C4    C     0.61320331988803 0.73213757059824 0.69445120976236 
C5    C     0.66949113979763 0.09468175063880 0.50092204026780 
C6    C     0.83946489002967 0.76458207923216 0.50943609942448 
C7    C     0.81618064975102 0.12036210972572 0.38045801998106 
C8    C     0.56852580993342 0.90785607082094 0.65845722976553 
C9    C     0.59653773993037 0.08674605941667 0.56321442019623 
C10   C     0.91103812976512 0.78828665033497 0.45324165974961 
C11   C     0.69789320021426 0.28000642981145 0.40216577016342 
C12   C     0.76837122991903 0.29241208934148 0.34481551967372 
C13   C     0.88937066998754 0.13949611999618 0.32299494986454 
C14   C     0.93640381977271 0.97693237000953 0.35922033057836 
