data_stdin
_audit_creation_method 'critic2'
_audit_creation_date 2023-8-11
_chemical_formula_sum 'C14 H10'
_cell_formula_units_Z 4
_cell_length_a        19.1028525300
_cell_length_b         8.2852191500
_cell_length_c         6.1082489708
_cell_angle_alpha        90.0000
_cell_angle_beta        89.9990
_cell_angle_gamma        89.9999
_cell_volume           966.760625
_space_group_crystal_system orthorhombic
_space_group_IT_number 29
_space_group_name_H-M_alt 'Pca2_1'
_space_group_name_Hall 'P 2c -2ac'
loop_
_symmetry_equiv_pos_site_id
_symmetry_equiv_pos_as_xyz
 1 'x,y,z'
 2 '-x,-y,-1/2+z'
 3 '-1/2-x,y,-1/2+z'
 4 '-1/2+x,-y,z'
loop_
_atom_site_label
_atom_site_type_symbol
_atom_site_fract_x
_atom_site_fract_y
_atom_site_fract_z
H1    H     0.03083567007957 0.06569192983760 0.94878367048131 
H2    H     0.15487685001701 0.99665638034124 0.94545398033700 
H3    H     0.92945778016827 0.12613159993825 0.95830695048360 
H4    H     0.80717788022998 0.20832770967929 0.97847347004273 
H5    H     0.23399545021512 0.09028632003505 0.24660627021161 
H6    H     0.18463201979239 0.25038878012651 0.55499752932521 
H7    H     0.08578208998793 0.36946261059408 0.74372436053849 
H8    H     0.96050731020621 0.43919655015323 0.76065723959479 
H9    H     0.84570203982071 0.44860969989622 0.59331242079308 
H10   H     0.76398919016006 0.37641492962051 0.29062975982177 
C1    C     0.06357196025171 0.10675080955535 0.08299798997925 
C2    C     0.03393527018909 0.19644592011112 0.25652035011879 
C3    C     0.96017953991839 0.23922317950913 0.26497341932199 
C4    C     0.13420305007576 0.06863259992410 0.07983119921272 
C5    C     0.07892567998416 0.24671104025981 0.43060108964405 
C6    C     0.91226333017071 0.19653651973763 0.09852661979086 
C7    C     0.93461798004466 0.32887653993253 0.44825520044470 
C8    C     0.17854116981680 0.12086230013143 0.24976484954101 
C9    C     0.15111097992672 0.20907635006162 0.42193510013205 
C10   C     0.84278528008900 0.24385188005349 0.10890173943757 
C11   C     0.05061963995397 0.33389233046616 0.61226755043674 
C12   C     0.98133179004124 0.37283850013558 0.62130857959783 
C13   C     0.86354910979186 0.37669014992228 0.45456538020268 
C14   C     0.81827497993077 0.33652169970491 0.28630618919520 
