data_stdin
_audit_creation_method 'critic2'
_audit_creation_date 2023-8-11
_chemical_formula_sum 'C14 H10'
_cell_formula_units_Z 4
_cell_length_a        19.6970915901
_cell_length_b         9.4653202701
_cell_length_c         5.5159794309
_cell_angle_alpha        89.9990
_cell_angle_beta        89.9996
_cell_angle_gamma        89.9997
_cell_volume          1028.395235
_space_group_crystal_system orthorhombic
_space_group_IT_number 29
_space_group_name_H-M_alt 'Pca2_1'
_space_group_name_Hall 'P 2c -2ac'
loop_
_symmetry_equiv_pos_site_id
_symmetry_equiv_pos_as_xyz
 1 'x,y,z'
 2 '-x,-y,-1/2+z'
 3 '-1/2-x,y,-1/2+z'
 4 '-1/2+x,-y,z'
loop_
_atom_site_label
_atom_site_type_symbol
_atom_site_fract_x
_atom_site_fract_y
_atom_site_fract_z
H1    H     0.02501615989500 0.43823947008328 0.09819891007206 
H2    H     0.98152387005240 0.19751562030701 0.09233075024260 
H3    H     0.06300698007060 0.63323674023442 0.09966149082339 
H4    H     0.10578772024207 0.87433654045835 0.07514916964312 
H5    H     0.01957658007323 0.02677419988835 0.77313071943781 
H6    H     0.10045573017261 0.10609635958756 0.45491274041084 
H7    H     0.17161503006537 0.28817005970509 0.27247874001387 
H8    H     0.21342879005908 0.53335828018759 0.26024669052892 
H9    H     0.21507597976617 0.77184507000293 0.42123639027212 
H10   H     0.18120944009709 0.94835771975776 0.73360453062706 
C1    C     0.04240389995989 0.36700529993155 0.95684224916148 
C2    C     0.08857630023695 0.41516715016311 0.77905555039528 
C3    C     0.11395260018152 0.55926686991301 0.77349865928962 
C4    C     0.01783298000955 0.22987337021253 0.95437516984737 
C5    C     0.10979323989140 0.31810401046476 0.59546923978356 
C6    C     0.09618109989120 0.66123632013256 0.94974060996408 
C7    C     0.15820258004077 0.60097135003571 0.58128239029660 
C8    C     0.03896541014941 0.13450367004301 0.77388703933967 
C9    C     0.08417878007982 0.17847724970614 0.59731340995740 
C10   C     0.12035944003476 0.79843864026437 0.93625515915634 
C11   C     0.15594972010950 0.36375853038761 0.41064216064791 
C12   C     0.17893630999003 0.49958873977055 0.40308985046003 
C13   C     0.18149974999336 0.74217844960894 0.56952520038706 
C14   C     0.16296624985293 0.83985775025340 0.74405673973932 
