data_stdin
_audit_creation_method 'critic2'
_audit_creation_date 2023-8-11
_chemical_formula_sum 'C14 H10'
_cell_formula_units_Z 4
_cell_length_a         6.0281783511
_cell_length_b        19.3033686300
_cell_length_c         8.3272936802
_cell_angle_alpha        90.0004
_cell_angle_beta        89.9999
_cell_angle_gamma        89.9989
_cell_volume           968.998441
_space_group_crystal_system orthorhombic
_space_group_IT_number 29
_space_group_name_H-M_alt 'Pca2_1'
_space_group_name_Hall 'P 2c -2ac'
loop_
_symmetry_equiv_pos_site_id
_symmetry_equiv_pos_as_xyz
 1 'x,y,z'
 2 '-x,-y,-1/2+z'
 3 '-1/2-x,y,-1/2+z'
 4 '-1/2+x,-y,z'
loop_
_atom_site_label
_atom_site_type_symbol
_atom_site_fract_x
_atom_site_fract_y
_atom_site_fract_z
H1    H     0.10831702995713 0.78981337981723 0.02110127994836 
H2    H     0.12445674939861 0.91267548984814 0.08675369982805 
H3    H     0.11614611012502 0.68764618985650 0.97841092975658 
H4    H     0.13965482986938 0.56367556981154 0.92605080033615 
H5    H     0.44035368028416 0.98603581997985 0.99155806988240 
H6    H     0.74322774049559 0.93225250999128 0.83072616048839 
H7    H     0.91526222931663 0.83202963978689 0.70888915967010 
H8    H     0.92047215000557 0.70662559998705 0.65197231941278 
H9    H     0.75427313985496 0.59319248013318 0.66970758950952 
H10   H     0.45470994922042 0.51466230006584 0.76697561980063 
C1    C     0.24859875014139 0.81999444006189 0.97837149951371 
C2    C     0.42026540039343 0.78777500015404 0.89019803027180 
C3    C     0.42367762076989 0.71388706980780 0.85658044046415 
C4    C     0.25602599951809 0.89004830009054 0.01426024052369 
C5    C     0.60120264064257 0.82969333980749 0.83676067959958 
C6    C     0.25656010983492 0.66807482000572 0.91034867961974 
C7    C     0.60728303917914 0.68539289997735 0.77031712057799 
C8    C     0.43477130082613 0.93114942997034 0.96167975042848 
C9    C     0.60391245056333 0.90125749016300 0.87324744958432 
C10   C     0.26901202036424 0.59763210979264 0.88008661940925 
C11   C     0.77976083955009 0.79899310002750 0.74883132036472 
C12   C     0.78285582959553 0.72968861008491 0.71736852051465 
C13   C     0.61458150056326 0.61340616021799 0.73852617038672 
C14   C     0.44790444955488 0.56996229975251 0.79233844019943 
