data_stdin
_audit_creation_method 'critic2'
_audit_creation_date 2023-8-11
_chemical_formula_sum 'C14 H10'
_cell_formula_units_Z 4
_cell_length_a        19.7275964536
_cell_length_b         6.0750935811
_cell_length_c         8.3056791953
_cell_angle_alpha        89.9987
_cell_angle_beta        73.7694
_cell_angle_gamma        89.9996
_cell_volume           955.738009
_space_group_crystal_system monoclinic
_space_group_IT_number 9
_space_group_name_H-M_alt 'Cc'
_space_group_name_Hall 'C -2yc'
loop_
_symmetry_equiv_pos_site_id
_symmetry_equiv_pos_as_xyz
 1 'x,y,z'
 2 'x,-y,-1/2+z'
 3 '-1/2+x,-1/2+y,z'
 4 '-1/2+x,-1/2-y,-1/2+z'
loop_
_atom_site_label
_atom_site_type_symbol
_atom_site_fract_x
_atom_site_fract_y
_atom_site_fract_z
H1    H     0.00655493018979 0.63817077058628 0.97567657942067 
H2    H     0.88170772993270 0.60816211969656 0.99160451025390 
H3    H     0.10986547992624 0.64728203005057 0.95799340037895 
H4    H     0.23595479998519 0.64326867929872 0.93377207001411 
H5    H     0.81037667996609 0.28552793980456 0.13424928982024 
H6    H     0.86879588983863 0.98962284024691 0.25308660011168 
H7    H     0.97223254984788 0.83259987936070 0.31037322017736 
H8    H     0.09979203018468 0.84213768035427 0.28511305976447 
H9    H     0.21375452983867 0.01918319013752 0.19051889941482 
H10   H     0.28976970022713 0.33066604029680 0.04970309944231 
C1    C     0.97734163997428 0.49554444064950 0.03754007035846 
C2    C     0.01197210994319 0.32896859967218 0.10321109941281 
C3    C     0.08708831990108 0.33489058081657 0.08903984951808 
C4    C     0.90614221001732 0.48002162993913 0.04798878060495 
C5    C     0.97136107995041 0.14397268035803 0.18240515014551 
C6    C     0.13155945976025 0.50887780987852 0.00992437053735 
C7    C     0.11813589984740 0.15525399992537 0.15415170977767 
C8    C     0.86627548982085 0.29775516074667 0.12640719961939 
C9    C     0.89866465019644 0.13269605006143 0.19277793983134 
C10   C     0.20319048028614 0.50666895030176 0.99582154947493 
C11   C     0.00446865013501 0.97052770929843 0.24911385975694 
C12   C     0.07496939991452 0.97576014052829 0.23519904020202 
C13   C     0.19142317013396 0.15679072983954 0.13823995030195 
C14   C     0.23351049009314 0.32989633019447 0.06045424005218 
