data_stdin
_audit_creation_method 'critic2'
_audit_creation_date 2023-8-11
_chemical_formula_sum 'C14 H10'
_cell_formula_units_Z 8
_cell_length_a        11.0456123637
_cell_length_b        20.9927851733
_cell_length_c         8.5087570413
_cell_angle_alpha        90.0000
_cell_angle_beta        90.0010
_cell_angle_gamma        90.0005
_cell_volume          1972.994990
_space_group_crystal_system orthorhombic
_space_group_IT_number 56
_space_group_name_H-M_alt 'Pccn'
_space_group_name_Hall '-P 2ab 2ac'
loop_
_symmetry_equiv_pos_site_id
_symmetry_equiv_pos_as_xyz
 1 'x,y,z'
 2 '-x,-y,-z'
 3 '-1/2-x,-1/2-y,z'
 4 '-1/2+x,-1/2+y,-z'
 5 '-1/2+x,-y,-1/2-z'
 6 '-1/2-x,y,-1/2+z'
 7 '-x,-1/2+y,-1/2-z'
 8 'x,-1/2-y,-1/2+z'
loop_
_atom_site_label
_atom_site_type_symbol
_atom_site_fract_x
_atom_site_fract_y
_atom_site_fract_z
H1    H     0.55932031005070 0.49801674994932 0.63290180039626 
H2    H     0.50783240955467 0.38901970979688 0.70533314950395 
H3    H     0.59805392020596 0.58825366011945 0.58085699034452 
H4    H     0.63347545977402 0.69971893976607 0.50822939010086 
H5    H     0.35561185021655 0.36750380993334 0.91743620055689 
H6    H     0.25894001022727 0.45807023976658 0.05631671026992 
H7    H     0.22557656004867 0.57107658982043 0.08944845026198 
H8    H     0.26616962991521 0.68237589989454 0.01646885976108 
H9    H     0.37030981961915 0.76068254977115 0.84915830031829 
H10   H     0.51781851037479 0.78680615986612 0.64029030966129 
C1    C     0.49130885023625 0.49032938007863 0.72330669041282 
C2    C     0.43539805013199 0.54285700005067 0.79775933016203 
C3    C     0.46162984034130 0.60864823017406 0.75663452967673 
C4    C     0.46248038039582 0.42830203017527 0.76459953042138 
C5    C     0.34857095015661 0.53025283996825 0.91817788996816 
C6    C     0.54727443011737 0.62536306978565 0.64041462956056 
C7    C     0.39754315042870 0.65880339988376 0.83413564981901 
C8    C     0.37726757026047 0.41621860018844 0.88380428999052 
C9    C     0.32232150039418 0.46660800979988 0.96030040974444 
C10   C     0.56800875997229 0.68829843004517 0.59980361941253 
C11   C     0.28942957036768 0.58202417008700 0.99596227001429 
C12   C     0.31204085009930 0.64368680015208 0.95510479954171 
C13   C     0.41987558979794 0.72276026009668 0.79008882959860 
C14   C     0.50331344009938 0.73747209007313 0.67451990990334 
