data_stdin
_audit_creation_method 'critic2'
_audit_creation_date 2023-8-11
_chemical_formula_sum 'C14 H10'
_cell_formula_units_Z 8
_cell_length_a        18.2509904923
_cell_length_b         5.3418427412
_cell_length_c        19.4415068800
_cell_angle_alpha        89.9993
_cell_angle_beta        90.0003
_cell_angle_gamma        90.0017
_cell_volume          1895.428736
_space_group_crystal_system orthorhombic
_space_group_IT_number 61
_space_group_name_H-M_alt 'Pbca'
_space_group_name_Hall '-P 2ac 2ab'
loop_
_symmetry_equiv_pos_site_id
_symmetry_equiv_pos_as_xyz
 1 'x,y,z'
 2 '-x,-y,-z'
 3 '-1/2+x,-1/2-y,-z'
 4 '-1/2-x,-1/2+y,z'
 5 '-x,-1/2+y,-1/2-z'
 6 'x,-1/2-y,-1/2+z'
 7 '-1/2-x,-y,-1/2+z'
 8 '-1/2+x,y,-1/2-z'
loop_
_atom_site_label
_atom_site_type_symbol
_atom_site_fract_x
_atom_site_fract_y
_atom_site_fract_z
H1    H     0.78866465976207 0.71915450979738 0.26793102982366 
H2    H     0.78565565981784 0.83049872005354 0.14680799018695 
H3    H     0.78690293008613 0.65359965053136 0.36950585022304 
H4    H     0.79216037995511 0.56904340950423 0.49237141976092 
H5    H     0.85664791989618 0.19735155052984 0.10269941998172 
H6    H     0.93197908985298 0.44990599920225 0.18398627990649 
H7    H     0.98015745973290 0.52475316039935 0.29833353007934 
H8    H     0.98609381008224 0.42193855065241 0.42183109975820 
H9    H     0.94693883008674 0.17120993020773 0.51942870006704 
H10   H     0.87326452996522 0.82580741971460 0.56927235994480 
C1    C     0.82028167996302 0.88000270066384 0.25088744020062 
C2    C     0.86190419996110 0.02092826919759 0.29840733008441 
C3    C     0.86381643991598 0.96428323033862 0.37150971985604 
C4    C     0.81878002023736 0.94229590087611 0.18177073974837 
C5    C     0.90341047991131 0.22815809922168 0.27295205013650 
C6    C     0.82211682987110 0.76960120912359 0.40140044985772 
C7    C     0.90922874024909 0.11204246004107 0.41551628010031 
C8    C     0.85871872023965 0.14887982915534 0.15706807987275 
C9    C     0.90039845981425 0.28967757918463 0.20216443008485 
C10   C     0.82503147015286 0.72105028063585 0.47133288990862 
C11   C     0.94841987981363 0.36965725043265 0.31899762010634 
C12   C     0.95171342008689 0.31241011083654 0.38725889001111 
C13   C     0.91138617001525 0.05863242965438 0.48671351978472 
C14   C     0.87027989012223 0.86583260945046 0.51443099992415 
