data_stdin
_audit_creation_method 'critic2'
_audit_creation_date 2023-8-11
_chemical_formula_sum 'C14 H10'
_cell_formula_units_Z 4
_cell_length_a         6.2774945124
_cell_length_b        18.5646182148
_cell_length_c        10.4475681762
_cell_angle_alpha        90.0089
_cell_angle_beta        53.1906
_cell_angle_gamma        90.0280
_cell_volume           974.812812
_space_group_crystal_system triclinic
_space_group_IT_number 2
_space_group_name_H-M_alt 'P-1'
_space_group_name_Hall '-P 1'
loop_
_symmetry_equiv_pos_site_id
_symmetry_equiv_pos_as_xyz
 1 'x,y,z'
 2 '-x,-y,-z'
loop_
_atom_site_label
_atom_site_type_symbol
_atom_site_fract_x
_atom_site_fract_y
_atom_site_fract_z
H1    H     0.98450451041773 0.69679683998988 0.76526775980092 
H2    H     0.01543278098951 0.19683455020527 0.73477149957524 
H3    H     0.99253107960106 0.56543357976358 0.75742158980502 
H4    H     0.00731925038967 0.06546910002649 0.74271402994887 
H5    H     0.98445917950035 0.80377106998622 0.76528021035497 
H6    H     0.01560701025330 0.30380875022086 0.73467947984767 
H7    H     0.99245906950648 0.93514001020248 0.75745536979507 
H8    H     0.00769482049870 0.43517555973283 0.74240793009239 
H9    H     0.25411568027528 0.50011703021043 0.49593581942314 
H10   H     0.74570208005652 0.00014769974460 0.00424340037846 
H11   H     0.50765399129126 0.57012058013709 0.24241740942618 
H12   H     0.49221022054406 0.07014570988947 0.25771543965862 
H13   H     0.64983118930170 0.68377388020125 0.09991528025060 
H14   H     0.35010810956941 0.18379686986670 0.40013567004667 
H15   H     0.64980520961037 0.81693707999584 0.09992732058926 
H16   H     0.35025250050088 0.31696007985307 0.40002057977647 
H17   H     0.50785866974095 0.93056347976132 0.24245800037295 
H18   H     0.49227821944207 0.43058857020737 0.25740795987933 
H19   H     0.25430233981666 0.00050829975781 0.49599422944485 
H20   H     0.74588365991438 0.50053887979542 0.00382532954033 
C1    C     0.10000648907985 0.66999747009250 0.64980220054910 
C2    C     0.89991690073686 0.17003193017275 0.85025654957542 
C3    C     0.24207167090510 0.71120452976052 0.50774335966724 
C4    C     0.75789044900377 0.21123551025280 0.99228501030282 
C5    C     0.24206108115433 0.78941763982380 0.50775160950674 
C6    C     0.75797804999241 0.28944862988821 0.99221894998939 
C7    C     0.10416388959263 0.59546698012202 0.64574049981583 
C8    C     0.89571062041253 0.09550111986660 0.85437226030059 
C9    C     0.39133066060096 0.67378849995636 0.35858682960209 
C10   C     0.60860060026827 0.17381619974258 0.14147012006384 
C11   C     0.09998330965200 0.83059470977085 0.64981927954777 
C12   C     0.90009603082318 0.33062915980505 0.85012087960997 
C13   C     0.39131025072689 0.82686713021590 0.35859972950221 
C14   C     0.60875854051876 0.32689484011218 0.14134221017830 
C15   C     0.25147608036291 0.55877518988205 0.49853732982311 
C16   C     0.74838572010873 0.05880600023940 0.00160343941996 
C17   C     0.39259282003673 0.59761393007428 0.35740657955068 
C18   C     0.60729312970200 0.09764144992721 0.14270563033646 
C19   C     0.10415572124304 0.90512720996456 0.64577004947329 
C20   C     0.89597324871406 0.40516132986456 0.85411605051051 
C21   C     0.53784937092475 0.71363108007431 0.21196879944276 
C22   C     0.46211748924818 0.21365561024460 0.28805825059801 
C23   C     0.53783467975310 0.78705535002955 0.21197552045328 
C24   C     0.46219666985825 0.28707990007994 0.28799630035836 
C25   C     0.39267909909367 0.90304157015650 0.35743871031925 
C26   C     0.60743648927696 0.40306906026899 0.14244793023953 
C27   C     0.25154971022384 0.94185099976931 0.49857648962443 
C28   C     0.74859157022425 0.44188175025234 0.00128158974930 
