data_stdin
_audit_creation_method 'critic2'
_audit_creation_date 2023-8-11
_chemical_formula_sum 'C14 H10'
_cell_formula_units_Z 4
_cell_length_a        18.8918628295
_cell_length_b         6.4952120301
_cell_length_c         7.7586351590
_cell_angle_alpha        89.9998
_cell_angle_beta        95.3618
_cell_angle_gamma        90.0000
_cell_volume           947.870559
_space_group_crystal_system monoclinic
_space_group_IT_number 5
_space_group_name_H-M_alt 'C2'
_space_group_name_Hall 'C 2y'
loop_
_symmetry_equiv_pos_site_id
_symmetry_equiv_pos_as_xyz
 1 'x,y,z'
 2 '-1/2-x,-1/2+y,-z'
 3 '-1/2+x,-1/2+y,z'
 4 '-x,y,-z'
loop_
_atom_site_label
_atom_site_type_symbol
_atom_site_fract_x
_atom_site_fract_y
_atom_site_fract_z
H1    H     0.17099022990601 0.50339557928713 0.61937909956601 
H2    H     0.04611713000398 0.46473768057885 0.66887200980895 
H3    H     0.27458645011375 0.52928964968476 0.58880131020832 
H4    H     0.40186853008918 0.55496061940018 0.56056928061788 
H5    H     0.00384498973640 0.15051890994945 0.81622347958495 
H6    H     0.08965135987328 0.87145755956175 0.90483501046002 
H7    H     0.20806027008440 0.72556754998190 0.91803979970684 
H8    H     0.33581327003550 0.75956729962257 0.88280980984057 
H9    H     0.43540397997773 0.96006026064727 0.80085183969473 
H10   H     0.48431433001678 0.27399832002501 0.66908292020776 
C1    C     0.15435356979652 0.36426295990481 0.68227311978355 
C2    C     0.20441098012535 0.20889838929220 0.73292562000734 
C3    C     0.27962644992053 0.22791085053558 0.71014373942250 
C4    C     0.08342770008033 0.34318688027311 0.71106496937223 
C5    C     0.17965797996226 0.02691476964819 0.81168291997956 
C6    C     0.30885664005417 0.40287046933411 0.63518936946065 
C7    C     0.32672856023306 0.06476431969870 0.76826006022404 
C8    C     0.05954634987157 0.16590011003779 0.79264978942681 
C9    C     0.10712588977634 0.00981544948436 0.84135126002442 
C10   C     0.38112229977729 0.41835139959186 0.61975823058296 
C11   C     0.22845588974664 0.86447769007763 0.86173296980945 
C12   C     0.29909649976812 0.88305793935374 0.84165833012594 
C13   C     0.40042465017881 0.08499092041626 0.75306516037786 
C14   C     0.42748097993049 0.25897773032309 0.68004568024793 
