data_stdin
_audit_creation_method 'critic2'
_audit_creation_date 2023-8-11
_chemical_formula_sum 'C14 H10'
_cell_formula_units_Z 4
_cell_length_a         7.9955928966
_cell_length_b        11.2122842000
_cell_length_c        11.1788097124
_cell_angle_alpha        90.0000
_cell_angle_beta        69.1304
_cell_angle_gamma        90.0001
_cell_volume           936.419093
_space_group_crystal_system monoclinic
_space_group_IT_number 14
_space_group_name_H-M_alt 'P2_1/c'
_space_group_name_Hall '-P 2ybc'
loop_
_symmetry_equiv_pos_site_id
_symmetry_equiv_pos_as_xyz
 1 'x,y,z'
 2 '-x,-y,-z'
 3 '-x,-1/2+y,-1/2-z'
 4 'x,-1/2-y,-1/2+z'
loop_
_atom_site_label
_atom_site_type_symbol
_atom_site_fract_x
_atom_site_fract_y
_atom_site_fract_z
H1    H     0.92011779968840 0.89058691037688 0.25689007956744 
H2    H     0.13179559941227 0.74580083986279 0.28626204993891 
H3    H     0.74307436981801 0.02030927029635 0.26443597001184 
H4    H     0.51747362984957 0.15802325035306 0.24244966017753 
H5    H     0.02302506983127 0.57340539009111 0.43363459011711 
H6    H     0.69521881010453 0.54505717989208 0.54871290999344 
H7    H     0.38817017027245 0.60534625988449 0.59372628979008 
H8    H     0.16714986010738 0.74177304956943 0.55688345025503 
H9    H     0.09768124029380 0.92155274967132 0.46377662019334 
H10   H     0.19351573008278 0.10910861007317 0.33812431995542 
C1    C     0.86868633986028 0.81535015034297 0.32098297024358 
C2    C     0.68227616978891 0.80267550989786 0.38620374990497 
C3    C     0.55270868987554 0.88741666027099 0.37300264988778 
C4    C     0.98889753065256 0.73369125961143 0.33710238968372 
C5    C     0.62017258002253 0.70173509036420 0.46808889961004 
C6    C     0.60243348977083 0.99592941011765 0.30538466996857 
C7    C     0.36635463013576 0.86237077028066 0.43327201040115 
C8    C     0.92711899961366 0.63606333955938 0.42027247036604 
C9    C     0.74549527046309 0.62042360983654 0.48447263984029 
C10   C     0.47554758020267 0.07431064000387 0.29348009002844 
C11   C     0.43192683990656 0.68253788021715 0.53094798009705 
C12   C     0.31028672981712 0.75806554999705 0.51132907988061 
C13   C     0.23909245987384 0.94304851987192 0.41841919971990 
C14   C     0.29213402019402 0.04703491970404 0.34872589963068 
