data_stdin
_audit_creation_method 'critic2'
_audit_creation_date 2023-8-11
_chemical_formula_sum 'C14 H10'
_cell_formula_units_Z 4
_cell_length_a        15.1444253573
_cell_length_b         5.8557066911
_cell_length_c        10.8796715422
_cell_angle_alpha        90.0003
_cell_angle_beta        82.9101
_cell_angle_gamma        89.9990
_cell_volume           957.446216
_space_group_crystal_system monoclinic
_space_group_IT_number 14
_space_group_name_H-M_alt 'P2_1/c'
_space_group_name_Hall '-P 2ybc'
loop_
_symmetry_equiv_pos_site_id
_symmetry_equiv_pos_as_xyz
 1 'x,y,z'
 2 '-x,-y,-z'
 3 '-1/2-x,-1/2+y,-1/2-z'
 4 '-1/2+x,-1/2-y,-1/2+z'
loop_
_atom_site_label
_atom_site_type_symbol
_atom_site_fract_x
_atom_site_fract_y
_atom_site_fract_z
H1    H     0.67402881005141 0.14900009948469 0.59767391021745 
H2    H     0.80263631975409 0.12423713943762 0.71135875030441 
H3    H     0.57949188970917 0.15305171946384 0.48202946966557 
H4    H     0.45508116028240 0.19704078985907 0.36112015012406 
H5    H     0.92648389024958 0.41057655043712 0.67371235026452 
H6    H     0.91284464010673 0.73404020034017 0.52978216043355 
H7    H     0.82945205008737 0.94561039986458 0.39105954021674 
H8    H     0.69873603011670 0.98697823928827 0.27853845018274 
H9    H     0.56156421011147 0.83983263074693 0.21769756038544 
H10   H     0.44418340972878 0.54043368993567 0.22718565002537 
C1    C     0.72566045014448 0.27825988083696 0.58132682986432 
C2    C     0.71724469979232 0.45655136052843 0.49589948010158 
C3    C     0.64292957967791 0.47417004920384 0.42382963018627 
C4    C     0.79894224001300 0.26326159081416 0.64565514997571 
C5    C     0.78537403017323 0.62692725970229 0.48065933986618 
C6    C     0.57634251016985 0.30487369936221 0.42532091983020 
C7    C     0.63676078985413 0.66945769976226 0.34664440001655 
C8    C     0.86781504991027 0.42570298978088 0.62572136985020 
C9    C     0.86055300030097 0.60544310917404 0.54511467034246 
C10   C     0.50633158032486 0.32826019985631 0.35579790976277 
C11   C     0.77701851989857 0.81748591075285 0.40068445005706 
C12   C     0.70496207984478 0.83972313985806 0.33784443036357 
C13   C     0.56435442028036 0.69003030078576 0.27663438016827 
C14   C     0.49981800974528 0.52229171918157 0.28096869982175 
