data_stdin
_audit_creation_method 'critic2'
_audit_creation_date 2023-8-11
_chemical_formula_sum 'C14 H10'
_cell_formula_units_Z 4
_cell_length_a        13.0494815373
_cell_length_b        17.5707796317
_cell_length_c         5.5304189560
_cell_angle_alpha        90.0004
_cell_angle_beta        49.6198
_cell_angle_gamma        89.9721
_cell_volume           965.965180
_space_group_crystal_system triclinic
_space_group_IT_number 2
_space_group_name_H-M_alt 'P-1'
_space_group_name_Hall '-P 1'
loop_
_symmetry_equiv_pos_site_id
_symmetry_equiv_pos_as_xyz
 1 'x,y,z'
 2 '-x,-y,-z'
loop_
_atom_site_label
_atom_site_type_symbol
_atom_site_fract_x
_atom_site_fract_y
_atom_site_fract_z
H1    H     0.82892680994174 0.29210642003658 0.62068771064672 
H2    H     0.17158769992744 0.79212131002456 0.87858873005267 
H3    H     0.07297751007076 0.29394955027480 0.27346529109524 
H4    H     0.92753054961877 0.79395417998945 0.22586020090982 
H5    H     0.62720320026195 0.28981894014518 0.92203052000781 
H6    H     0.37331878976628 0.78983823013484 0.57722273971067 
H7    H     0.38295611001423 0.29273905010868 0.28925593057274 
H8    H     0.61755504011372 0.79275940021969 0.20995477894314 
H9    H     0.18893062980715 0.36310054020998 0.43317420943850 
H10   H     0.81139820964156 0.86310017014180 0.06643975077035 
H11   H     0.05186793011341 0.42786129019944 0.95826260973199 
H12   H     0.94829151034871 0.92785424020057 0.54158566908444 
H13   H     0.83624817965728 0.46449738989373 0.45587884105126 
H14   H     0.16381613997298 0.96449376006316 0.04408464093035 
H15   H     0.58852082972856 0.46759685987320 0.81234671004164 
H16   H     0.41153868039931 0.96758696981179 0.68756366881435 
H17   H     0.37923689051029 0.43516378988463 0.92974931887638 
H18   H     0.62090786020350 0.93515579975939 0.56997893002913 
H19   H     0.25484384968527 0.36711313003492 0.79711627028527 
H20   H     0.74548015037859 0.86711354979449 0.70232816940535 
C1    C     0.87546707996400 0.32232979008733 0.69906564936668 
C2    C     0.12496711027814 0.82233695022577 0.80033598991223 
C3    C     0.79503957025478 0.35974631975530 0.99624489929503 
C4    C     0.20529878983331 0.85974839986289 0.50328447114916 
C5    C     0.64890274987878 0.36032361015046 0.20966691096054 
C6    C     0.35143472034074 0.86032813002424 0.28984422014467 
C7    C     0.01461987000832 0.32354152983731 0.50014542977522 
C8    C     0.98581035026876 0.82354433004103 0.99928662988980 
C9    C     0.86135113995627 0.39836851021856 0.08852581987223 
C10   C     0.13888601057799 0.89836430006507 0.41116571902454 
C11   C     0.57521484031253 0.32188898018318 0.14105123899277 
C12   C     0.42522168977252 0.82190159994092 0.35830593105284 
C13   C     0.57560360954920 0.40096758974727 0.50263370091076 
C14   C     0.42462939985161 0.90096439002074 0.99701078000623 
C15   C     0.07949257999290 0.36204553991372 0.59120238906004 
C16   C     0.92083945996345 0.86204286972368 0.90838591012266 
C17   C     0.00346494007196 0.39832002987320 0.88250196096714 
C18   C     0.99677211992099 0.89831346978394 0.61721355910499 
C19   C     0.43590689018251 0.32378073001935 0.34957712940046 
C20   C     0.56452496998254 0.82379414981873 0.14975435883632 
C21   C     0.78351701973428 0.43684330009920 0.38796072050755 
C22   C     0.21662101016277 0.93683497998061 0.11186434955374 
C23   C     0.64665715996586 0.43850006987872 0.58475981099855 
C24   C     0.35347772007651 0.93848970983750 0.91504124079531 
C25   C     0.43354474016316 0.40291834978130 0.70961206987962 
C26   C     0.56668447988019 0.90291638990225 0.79001016054413 
C27   C     0.36425099005787 0.36504655010520 0.63524740023257 
C28   C     0.63607750062939 0.86505138012822 0.86421654890908 
