data_stdin
_audit_creation_method 'critic2'
_audit_creation_date 2023-8-11
_chemical_formula_sum 'C14 H10'
_cell_formula_units_Z 4
_cell_length_a         9.9666228107
_cell_length_b         6.0263651012
_cell_length_c        15.8456766438
_cell_angle_alpha        90.0001
_cell_angle_beta        89.9993
_cell_angle_gamma        90.0001
_cell_volume           951.731078
_space_group_crystal_system orthorhombic
_space_group_IT_number 33
_space_group_name_H-M_alt 'Pna2_1'
_space_group_name_Hall 'P 2c -2n'
loop_
_symmetry_equiv_pos_site_id
_symmetry_equiv_pos_as_xyz
 1 'x,y,z'
 2 '-x,-y,-1/2+z'
 3 '-1/2-x,-1/2+y,-1/2+z'
 4 '-1/2+x,-1/2-y,z'
loop_
_atom_site_label
_atom_site_type_symbol
_atom_site_fract_x
_atom_site_fract_y
_atom_site_fract_z
H1    H     0.00860760968604 0.60305577924778 0.93265884021166 
H2    H     0.14508073030464 0.55056515081836 0.05878917999127 
H3    H     0.87818238968642 0.63485188041783 0.83799394981284 
H4    H     0.72104073954391 0.68947314940200 0.72142903000499 
H5    H     0.14177678031221 0.83191714961357 0.17504867018783 
H6    H     0.00186971959082 0.16826420051634 0.16070729998469 
H7    H     0.83964394028802 0.39377702960995 0.08120531969568 
H8    H     0.69510429047994 0.45012962052277 0.95790980023931 
H9    H     0.60009259012492 0.31961736996936 0.82544581986702 
H10   H     0.58063127997775 0.03479634925481 0.71341366013725 
C1    C     0.00395283033187 0.72735717052925 0.98220049991353 
C2    C     0.91945832959374 0.91404774981634 0.97331993991473 
C3    C     0.83159236993174 0.94536047972747 0.90107853023960 
C4    C     0.08200805017652 0.69736176062081 0.05368707975978 
C5    C     0.91973671961688 0.07649048060594 0.03912636971565 
C6    C     0.81864049965376 0.78598582062137 0.83607902973181 
C7    C     0.75063902005230 0.14084916021202 0.89646329974689 
C8    C     0.07993745953438 0.85509232041501 0.11908616014232 
C9    C     0.00107819027704 0.04291135945144 0.11117646984476 
C10   C     0.72933000001867 0.81627485961283 0.77011945014823 
C11   C     0.83753463980038 0.27008065006860 0.03122089981703 
C12   C     0.75707467950499 0.30191521076238 0.96266726994061 
C13   C     0.66140982969526 0.16986051937428 0.82777487003357 
C14   C     0.65016397996556 0.00969619979257 0.76562320993003 
