data_stdin
_audit_creation_method 'critic2'
_audit_creation_date 2023-8-11
_chemical_formula_sum 'C14 H10'
_cell_formula_units_Z 4
_cell_length_a         8.0904874349
_cell_length_b        10.0511546400
_cell_length_c        11.6900269107
_cell_angle_alpha        90.0002
_cell_angle_beta        84.3024
_cell_angle_gamma        90.0002
_cell_volume           945.922019
_space_group_crystal_system monoclinic
_space_group_IT_number 14
_space_group_name_H-M_alt 'P2_1/c'
_space_group_name_Hall '-P 2ybc'
loop_
_symmetry_equiv_pos_site_id
_symmetry_equiv_pos_as_xyz
 1 'x,y,z'
 2 '-x,-y,-z'
 3 '-x,-1/2+y,-1/2-z'
 4 'x,-1/2-y,-1/2+z'
loop_
_atom_site_label
_atom_site_type_symbol
_atom_site_fract_x
_atom_site_fract_y
_atom_site_fract_z
H1    H     0.66902282034539 0.25912604957547 0.84562651023921 
H2    H     0.74652450974667 0.47542471966208 0.91984937026447 
H3    H     0.61164644958065 0.08123235994174 0.78733368007132 
H4    H     0.54233278969638 0.85955922012713 0.72128169025720 
H5    H     0.88182076050751 0.49046680037122 0.10262237999846 
H6    H     0.93833980004423 0.28397244972987 0.20853037996845 
H7    H     0.93012716001264 0.04373691952485 0.22769636986818 
H8    H     0.85045137021590 0.82234915969198 0.15839061986485 
H9    H     0.72663721036678 0.68487134955922 0.02016735969169 
H10   H     0.59560417059254 0.65847603976027 0.83773928981199 
C1    C     0.72676265044206 0.26285999046507 0.92559573968127 
C2    C     0.75595824967101 0.14372839982846 0.98436771984589 
C3    C     0.71139370974090 0.01380532022500 0.94283671016423 
C4    C     0.77078401049191 0.38545448974477 0.96729163960363 
C5    C     0.83385673997161 0.15279766006734 0.08846704963411 
C6    C     0.63758105026260 0.99565429965939 0.83945593001715 
C7    C     0.74468987053494 0.89843226037817 0.00801094999866 
C8    C     0.84688674962240 0.39398482964737 0.07019596996141 
C9    C     0.87845646955974 0.27899283041180 0.12919723997156 
C10   C     0.59818194947807 0.87006159980701 0.80178218033098 
C11   C     0.86726876999181 0.03420674018220 0.14989355967840 
C12   C     0.82387968040801 0.91227314017214 0.11148353962462 
C13   C     0.70119555982924 0.77143289045523 0.96864059033039 
C14   C     0.62902746946425 0.75678754967815 0.86707141008716 
