data_stdin
_audit_creation_method 'critic2'
_audit_creation_date 2023-8-11
_chemical_formula_sum 'C14 H10'
_cell_formula_units_Z 2
_cell_length_a         6.2246459968
_cell_length_b         5.3583843315
_cell_length_c        14.1543310840
_cell_angle_alpha        90.0014
_cell_angle_beta        78.4421
_cell_angle_gamma        90.0002
_cell_volume           462.531208
_space_group_crystal_system monoclinic
_space_group_IT_number 4
_space_group_name_H-M_alt 'P2_1'
_space_group_name_Hall 'P 2yb'
loop_
_symmetry_equiv_pos_site_id
_symmetry_equiv_pos_as_xyz
 1 'x,y,z'
 2 '-x,-1/2+y,-z'
loop_
_atom_site_label
_atom_site_type_symbol
_atom_site_fract_x
_atom_site_fract_y
_atom_site_fract_z
H1    H     0.03547088979412 0.00255340985965 0.85348410034804 
H2    H     0.98472476929060 0.68286531977806 0.97956116016054 
H3    H     0.07519469973094 0.25028795091476 0.74671037974953 
H4    H     0.11209019943811 0.55378272073718 0.61439452028055 
H5    H     0.66912875998610 0.38381855068977 0.99780974989322 
H6    H     0.41006525030112 0.41112310937675 0.88710786967959 
H7    H     0.28277720977498 0.61050384039015 0.75419539978485 
H8    H     0.32374377044900 0.92831437080223 0.62574260014386 
H9    H     0.52502083070482 0.27026375932059 0.53640318008765 
H10   H     0.83986736023307 0.56864728082544 0.50876550997037 
C1    C     0.89703912932887 0.87558082923019 0.86001088999792 
C2    C     0.75194494014039 0.89522532949689 0.79534326023493 
C3    C     0.77899413062384 0.07890064074763 0.71839490029256 
C4    C     0.86888707934314 0.69446850961774 0.93133726990609 
C5    C     0.57238429921962 0.72434769915261 0.80648235999431 
C6    C     0.95411148035424 0.25146532948049 0.70102444973620 
C7    C     0.62259717070719 0.08750258930823 0.65707615981710 
C8    C     0.69256707909947 0.52558522979189 0.94160322025864 
C9    C     0.54683736028456 0.54139707941900 0.87985037991693 
C10   C     0.97542364037630 0.42324660943812 0.62665205988299 
C11   C     0.41968626021567 0.74071102053456 0.74352459015055 
C12   C     0.44284646983381 0.91586640040542 0.67237096034004 
C13   C     0.64711743018018 0.26562954088483 0.58191579000357 
C14   C     0.82106894089503 0.43104594992277 0.56643807973976 
