data_stdin
_audit_creation_method 'critic2'
_audit_creation_date 2023-8-11
_chemical_formula_sum 'C14 H10'
_cell_formula_units_Z 4
_cell_length_a         8.3953781536
_cell_length_b         5.9942593200
_cell_length_c        19.6757506399
_cell_angle_alpha        89.9997
_cell_angle_beta        72.7678
_cell_angle_gamma        89.9999
_cell_volume           945.717592
_space_group_crystal_system monoclinic
_space_group_IT_number 14
_space_group_name_H-M_alt 'P2_1/c'
_space_group_name_Hall '-P 2ybc'
loop_
_symmetry_equiv_pos_site_id
_symmetry_equiv_pos_as_xyz
 1 'x,y,z'
 2 '-x,-y,-z'
 3 '-x,-1/2+y,-1/2-z'
 4 'x,-1/2-y,-1/2+z'
loop_
_atom_site_label
_atom_site_type_symbol
_atom_site_fract_x
_atom_site_fract_y
_atom_site_fract_z
H1    H     0.41621840939206 0.31751498018305 0.67566547001448 
H2    H     0.42155517986138 0.28532513009528 0.55144612015546 
H3    H     0.41478504978041 0.32741609925879 0.77782889980394 
H4    H     0.38860928954270 0.34672909990873 0.90427379023200 
H5    H     0.29621401019551 0.95345856998581 0.50935185988119 
H6    H     0.16608573964389 0.65313188926075 0.59527301014002 
H7    H     0.08671582972058 0.49821840988962 0.71385636016457 
H8    H     0.06114144040046 0.53012259030738 0.84148209004150 
H9    H     0.10596152059833 0.73445034033985 0.94068419981024 
H10   H     0.22760859984491 0.05578418923346 0.98824863973469 
C1    C     0.36091859032632 0.17087081918313 0.65918707984689 
C2    C     0.28685594022277 0.00331899012228 0.70917833984364 
C3    C     0.27660419003679 0.01830599042278 0.78409622990743 
C4    C     0.36345914985673 0.15350815043337 0.58863893990872 
C5    C     0.21696973997632 0.81319410072607 0.68474704009500 
C6    C     0.34683344033578 0.19627318986122 0.81254272985939 
C7    C     0.19151886055975 0.84683385996249 0.83160254987862 
C8    C     0.29345835073465 0.96640375987486 0.56486887978638 
C9    C     0.22234347056272 0.79843278081885 0.61235002998541 
C10   C     0.33110896976300 0.20819103012389 0.88455607974636 
C11   C     0.13781425937117 0.64220806016259 0.73387441017614 
C12   C     0.12430531943083 0.65938355023538 0.80446212000575 
C13   C     0.17423822982392 0.86467123014816 0.90515256003532 
C14   C     0.24218956072822 0.04317955064779 0.93151170981167 
