data_stdin
_audit_creation_method 'critic2'
_audit_creation_date 2023-8-11
_chemical_formula_sum 'C14 H10'
_cell_formula_units_Z 4
_cell_length_a         6.0420144140
_cell_length_b         7.8966099002
_cell_length_c        20.3971212231
_cell_angle_alpha        89.9996
_cell_angle_beta        74.5592
_cell_angle_gamma        89.9998
_cell_volume           938.050075
_space_group_crystal_system monoclinic
_space_group_IT_number 14
_space_group_name_H-M_alt 'P2_1/c'
_space_group_name_Hall '-P 2ybc'
loop_
_symmetry_equiv_pos_site_id
_symmetry_equiv_pos_as_xyz
 1 'x,y,z'
 2 '-x,-y,-z'
 3 '-x,-1/2+y,-1/2-z'
 4 'x,-1/2-y,-1/2+z'
loop_
_atom_site_label
_atom_site_type_symbol
_atom_site_fract_x
_atom_site_fract_y
_atom_site_fract_z
H1    H     0.99773378077243 0.40227996944517 0.84999604998988 
H2    H     0.11465982926668 0.38730082956917 0.72620232023021 
H3    H     0.90064254958342 0.40018194954830 0.95222163023583 
H4    H     0.76111489965527 0.40703307961482 0.07614081004225 
H5    H     0.87112133985641 0.23498370997890 0.66322484991625 
H6    H     0.50089220056670 0.10598008059790 0.72766261990508 
H7    H     0.21193488980847 0.05695831957195 0.83303380976845 
H8    H     0.08003412970752 0.07245341944801 0.95830269018001 
H9    H     0.14719601020146 0.14286789031526 0.06708544986695 
H10   H     0.38476217022425 0.27631429051534 0.13523989981997 
C1    C     0.88669447943464 0.33707989040191 0.82417075001847 
C2    C     0.67899521965849 0.26346634033559 0.86234833996261 
C3    C     0.60403532004377 0.26846552972216 0.93619688018624 
C4    C     0.95426898980756 0.32779358044439 0.75380862003712 
C5    C     0.53670682929680 0.18205020942289 0.82590174996738 
C6    C     0.73539473024059 0.34321203004867 0.97642242996517 
C7    C     0.38727070062864 0.19620667942260 0.97025254979718 
C8    C     0.81647470909689 0.24298886050718 0.71846868017161 
C9    C     0.61032635047162 0.17192018949715 0.75410241012051 
C10   C     0.65737436041140 0.34640426977007 0.04662669986679 
C11   C     0.31945048986444 0.11375578035499 0.86220683995488 
C12   C     0.24767038956627 0.12164800021767 0.93135606000155 
C13   C     0.31213228974859 0.20011069061733 0.04209145022537 
C14   C     0.44457062007085 0.27380477972317 0.08000170978986 
