data_stdin
_audit_creation_method 'critic2'
_audit_creation_date 2023-8-11
_chemical_formula_sum 'C14 H10'
_cell_formula_units_Z 4
_cell_length_a         5.2446811012
_cell_length_b        27.8609684299
_cell_length_c         6.3960064705
_cell_angle_alpha        89.9999
_cell_angle_beta        89.9999
_cell_angle_gamma        89.9975
_cell_volume           934.596582
_space_group_crystal_system orthorhombic
_space_group_IT_number 19
_space_group_name_H-M_alt 'P2_12_12_1'
_space_group_name_Hall 'P 2ac 2ab'
loop_
_symmetry_equiv_pos_site_id
_symmetry_equiv_pos_as_xyz
 1 'x,y,z'
 2 '-x,-1/2+y,-1/2-z'
 3 '-1/2+x,-1/2-y,-z'
 4 '-1/2-x,-y,-1/2+z'
loop_
_atom_site_label
_atom_site_type_symbol
_atom_site_fract_x
_atom_site_fract_y
_atom_site_fract_z
H1    H     0.39546467675767 0.32302465380780 0.98027847421714 
H2    H     0.72517587205928 0.26079063456786 0.97800625295195 
H3    H     0.13436190865937 0.37458420595374 0.97577771144846 
H4    H     0.81603199572510 0.43868912243056 0.95947538767031 
H5    H     0.01624732201337 0.25174112619645 0.66960360089178 
H6    H     0.97101014282130 0.30617384100589 0.36769349090992 
H7    H     0.75461555216566 0.37164894715203 0.18936783114711 
H8    H     0.42883215187453 0.43597905359245 0.18385352941827 
H9    H     0.09013985983916 0.48046564165330 0.35139810658425 
H10   H     0.78696373561989 0.49178552729978 0.64756422541053 
C1    C     0.51855628774447 0.31969626399248 0.84425945557121 
C2    C     0.48858370140798 0.35150692546401 0.67407419269692 
C3    C     0.29888889729055 0.38947370672223 0.67151196283573 
C4    C     0.70529380992831 0.28450458403227 0.84358196391597 
C5    C     0.65471735276125 0.34594945971529 0.49872619604701 
C6    C     0.12749464519112 0.39746035826819 0.83824998741903 
C7    C     0.28198336027337 0.42013138163402 0.49294004604325 
C8    C     0.86958902918015 0.27937067698110 0.67109111854917 
C9    C     0.84368401637750 0.30975616995819 0.50150276348185 
C10   C     0.94739814599927 0.43371692807017 0.82959393351773 
C11   C     0.62802495093567 0.37707342547024 0.32219803947610 
C12   C     0.44893122325024 0.41254440068106 0.31909146452514 
C13   C     0.09810502157626 0.45727554060913 0.48855664265626 
C14   C     0.93176982935470 0.46386123461267 0.65375519428622 
