data_stdin
_audit_creation_method 'critic2'
_audit_creation_date 2023-8-11
_chemical_formula_sum 'C14 H10'
_cell_formula_units_Z 8
_cell_length_a        38.7905358775
_cell_length_b         5.9014859528
_cell_length_c         8.4620420255
_cell_angle_alpha        89.9995
_cell_angle_beta        95.9836
_cell_angle_gamma        89.9985
_cell_volume          1926.591821
_space_group_crystal_system monoclinic
_space_group_IT_number 15
_space_group_name_H-M_alt 'C2/c'
_space_group_name_Hall '-C 2yc'
loop_
_symmetry_equiv_pos_site_id
_symmetry_equiv_pos_as_xyz
 1 'x,y,z'
 2 '-1/2-x,-1/2-y,-z'
 3 '-1/2-x,-1/2+y,-1/2-z'
 4 'x,-y,-1/2+z'
 5 '-1/2+x,-1/2+y,z'
 6 '-x,-y,-z'
 7 '-x,y,-1/2-z'
 8 '-1/2+x,-1/2-y,-1/2+z'
loop_
_atom_site_label
_atom_site_type_symbol
_atom_site_fract_x
_atom_site_fract_y
_atom_site_fract_z
H1    H     0.10997108005624 0.15252001003612 0.99469486997289 
H2    H     0.04827578010647 0.15169373922944 0.02445044000045 
H3    H     0.16126204007245 0.13621709031329 0.97636958011322 
H4    H     0.22321283991526 0.09939199038953 0.95442889985258 
H5    H     0.01029725994179 0.83280836027329 0.91561429043154 
H6    H     0.03622592004969 0.51341603053274 0.77633085051015 
H7    H     0.08533575988707 0.33365132036752 0.67388789970585 
H8    H     0.14798243003621 0.31861467971573 0.64652635942810 
H9    H     0.20539632010957 0.47229202056935 0.69698820045025 
H10   H     0.24631850995616 0.76603397049448 0.81551240046336 
C1    C     0.09430586008544 0.01171343941709 0.94539826954483 
C2    C     0.10971763993301 0.83315094968336 0.86660943035645 
C3    C     0.14664803008737 0.82369083946485 0.85060844991954 
C4    C     0.05915065993004 0.01186322983579 0.96209608032852 
C5    C     0.08797678997904 0.65179615999365 0.80403956038432 
C6    C     0.17038366990975 0.99021577917871 0.91439222997505 
C7    C     0.16000971007144 0.63399423941485 0.77159002031133 
C8    C     0.03788023006425 0.83207120917878 0.90166111946538 
C9    C     0.05221879987103 0.65473172057776 0.82383488985811 
C10   C     0.20559229997511 0.96974695060723 0.90197901968022 
C11   C     0.10245648006999 0.46832427963587 0.72243356033908 
C12   C     0.13706510009729 0.45986098919310 0.70711669057811 
C13   C     0.19599887992609 0.61816742025709 0.75885758955746 
C14   C     0.21860793004720 0.78255277974654 0.82366873040704 
