data_stdin
_audit_creation_method 'critic2'
_audit_creation_date 2023-8-11
_chemical_formula_sum 'C14 H10'
_cell_formula_units_Z 4
_cell_length_a        13.2441040259
_cell_length_b         7.6271109600
_cell_length_c         9.6755178821
_cell_angle_alpha        90.0000
_cell_angle_beta       101.4131
_cell_angle_gamma        90.0000
_cell_volume           958.038594
_space_group_crystal_system monoclinic
_space_group_IT_number 14
_space_group_name_H-M_alt 'P2_1/c'
_space_group_name_Hall '-P 2ybc'
loop_
_symmetry_equiv_pos_site_id
_symmetry_equiv_pos_as_xyz
 1 'x,y,z'
 2 '-x,-y,-z'
 3 '-x,-1/2+y,-1/2-z'
 4 'x,-1/2-y,-1/2+z'
loop_
_atom_site_label
_atom_site_type_symbol
_atom_site_fract_x
_atom_site_fract_y
_atom_site_fract_z
H1    H     0.03992782970345 0.01275953949040 0.66230618030612 
H2    H     0.97855887016443 0.75283140041454 0.52349235031101 
H3    H     0.09667641999898 0.23496052945726 0.75556632032933 
H4    H     0.17000258007121 0.49671289055143 0.88501856008869 
H5    H     0.10223344001321 0.51960474060298 0.48211929007514 
H6    H     0.28665311985481 0.54630267002491 0.59123257999457 
H7    H     0.42859028026175 0.70550628992318 0.73809790022664 
H8    H     0.49728583035755 0.97161336048936 0.86664947995281 
H9    H     0.47189617977398 0.26621741020843 0.95446430021982 
H10   H     0.35730919990804 0.51374954941978 0.98675635988855 
C1    C     0.09540341024147 0.91293402056435 0.64732541974914 
C2    C     0.20107424011851 0.93606320051650 0.70569305039645 
C3    C     0.24153774999776 0.09362303020986 0.78124389957371 
C4    C     0.06035590966068 0.76555916010045 0.56847531959448 
C5    C     0.27042928005340 0.79844305969540 0.68705786040011 
C6    C     0.17881688961323 0.23825095965369 0.79988206975479 
C7    C     0.34944942991055 0.10545509961637 0.83817973020619 
C8    C     0.12959848023053 0.63386517026967 0.54583325975777 
C9    C     0.23292758999249 0.64953359018885 0.60593497048006 
C10   C     0.21969345011492 0.38650509958600 0.87271897004640 
C11   C     0.37747039958658 0.81412164016373 0.74936206957940 
C12   C     0.41539329015705 0.96158428057066 0.82109480960736 
C13   C     0.38950194963908 0.25880094053695 0.91151677966182 
C14   C     0.32584958033023 0.39699228978553 0.92941920012370 
