data_stdin
_audit_creation_method 'critic2'
_audit_creation_date 2023-8-11
_chemical_formula_sum 'C14 H10'
_cell_formula_units_Z 4
_cell_length_a         9.0322712263
_cell_length_b         6.0808881905
_cell_length_c        19.9265561453
_cell_angle_alpha        90.0008
_cell_angle_beta        58.5836
_cell_angle_gamma        90.0001
_cell_volume           934.005674
_space_group_crystal_system monoclinic
_space_group_IT_number 14
_space_group_name_H-M_alt 'P2_1/c'
_space_group_name_Hall '-P 2ybc'
loop_
_symmetry_equiv_pos_site_id
_symmetry_equiv_pos_as_xyz
 1 'x,y,z'
 2 '-x,-y,-z'
 3 '-x,-1/2+y,-1/2-z'
 4 'x,-1/2-y,-1/2+z'
loop_
_atom_site_label
_atom_site_type_symbol
_atom_site_fract_x
_atom_site_fract_y
_atom_site_fract_z
H1    H     0.41177944977686 0.65655935927743 0.85437887996067 
H2    H     0.41555442031458 0.67809267051220 0.97552564998779 
H3    H     0.41013806063646 0.65247506005878 0.75435268975084 
H4    H     0.40454834016824 0.65655562994222 0.63341986994953 
H5    H     0.27913396973218 0.99681367024234 0.06736012984348 
H6    H     0.14721444957492 0.29882928030992 0.03226208019623 
H7    H     0.08127032993551 0.47040708982284 0.94071024993984 
H8    H     0.07100600012384 0.45893175982276 0.81945231978946 
H9    H     0.12677829956670 0.27275827985696 0.70129356997855 
H10   H     0.25852910018568 0.96295715923266 0.60603858987179 
C1    C     0.35208074962183 0.79787200050624 0.89262408013805 
C2    C     0.27558984059634 0.96606770922986 0.87164801972339 
C3    C     0.27222329970992 0.96108472004288 0.79947781978190 
C4    C     0.35375939991027 0.80937486955195 0.96166990972966 
C5    C     0.20227553991376 0.15052430002218 0.92311221013004 
C6    C     0.34704107034444 0.78895921074798 0.74396093003904 
C7    C     0.19374379063730 0.13940215030706 0.78242117990203 
C8    C     0.27854235022063 0.98943451025893 0.01293938019384 
C9    C     0.20474922000553 0.15758106011328 0.99345394000597 
C10   C     0.34313132010461 0.79038258994423 0.67535433025106 
C11   C     0.12979960064307 0.32766906952281 0.90227822984226 
C12   C     0.12491052015163 0.32229390935864 0.83511946003506 
C13   C     0.18913673014533 0.13608889059007 0.71254307006710 
C14   C     0.26255544038724 0.96409056930149 0.65970047985105 
