data_stdin
_audit_creation_method 'critic2'
_audit_creation_date 2023-8-11
_chemical_formula_sum 'C14 H10'
_cell_formula_units_Z 8
_cell_length_a        16.0500758197
_cell_length_b         8.1052629391
_cell_length_c        14.7088740121
_cell_angle_alpha        89.9998
_cell_angle_beta        90.0006
_cell_angle_gamma        90.0007
_cell_volume          1913.478666
_space_group_crystal_system orthorhombic
_space_group_IT_number 61
_space_group_name_H-M_alt 'Pbca'
_space_group_name_Hall '-P 2ac 2ab'
loop_
_symmetry_equiv_pos_site_id
_symmetry_equiv_pos_as_xyz
 1 'x,y,z'
 2 '-x,-y,-z'
 3 '-1/2+x,-1/2-y,-z'
 4 '-1/2-x,-1/2+y,z'
 5 '-x,-1/2+y,-1/2-z'
 6 'x,-1/2-y,-1/2+z'
 7 '-1/2-x,-y,-1/2+z'
 8 '-1/2+x,y,-1/2-z'
loop_
_atom_site_label
_atom_site_type_symbol
_atom_site_fract_x
_atom_site_fract_y
_atom_site_fract_z
H1    H     0.69776417010692 0.57762673043111 0.15012422024029 
H2    H     0.71034408019466 0.35807295991139 0.26488913967800 
H3    H     0.70625101978900 0.73647266041985 0.04601842980976 
H4    H     0.69096101980021 0.94354413958047 0.92649912999923 
H5    H     0.65755339991506 0.07553991013466 0.23176199011745 
H6    H     0.58908945001166 0.01675680030010 0.08414504993139 
H7    H     0.53498397997838 0.10968132031817 0.93792912001023 
H8    H     0.51244882011610 0.33137409962015 0.82502056032582 
H9    H     0.53394366026352 0.61291844029661 0.77362756019999 
H10   H     0.60246273028236 0.88678042034909 0.79024917026089 
C1    C     0.67387624026467 0.45542205965306 0.13474454010553 
C2    C     0.63616528998612 0.42528695948247 0.04957086988189 
C3    C     0.62921087985290 0.55135442037108 0.97985147974043 
C4    C     0.68099986998564 0.33220061018784 0.19960030024371 
C5    C     0.60316978003957 0.26465937998081 0.03251845002661 
C6    C     0.66791894993199 0.70748632053621 0.98717795991086 
C7    C     0.58218661988347 0.51625924985691 0.89976714982753 
C8    C     0.65083830989830 0.17258462980301 0.18123188018290 
C9    C     0.61255211021875 0.13998216962655 0.09898237002808 
C10   C     0.65938955005113 0.82523144019356 0.91950553013603 
C11   C     0.55952493001202 0.23318014939376 0.94948188980679 
C12   C     0.54755005003313 0.35511664035206 0.88701265978319 
C13   C     0.57227086022447 0.64019115032078 0.83295306007611 
C14   C     0.61013087021929 0.79250544058093 0.84234457969080 
