data_stdin
_audit_creation_method 'critic2'
_audit_creation_date 2023-8-11
_chemical_formula_sum 'C14 H10'
_cell_formula_units_Z 4
_cell_length_a         9.1771795904
_cell_length_b        18.2928033500
_cell_length_c         5.7471869504
_cell_angle_alpha        89.9998
_cell_angle_beta        89.9993
_cell_angle_gamma        90.0005
_cell_volume           964.816719
_space_group_crystal_system orthorhombic
_space_group_IT_number 19
_space_group_name_H-M_alt 'P2_12_12_1'
_space_group_name_Hall 'P 2ac 2ab'
loop_
_symmetry_equiv_pos_site_id
_symmetry_equiv_pos_as_xyz
 1 'x,y,z'
 2 '-x,-1/2+y,-1/2-z'
 3 '-1/2-x,-y,-1/2+z'
 4 '-1/2+x,-1/2-y,-z'
loop_
_atom_site_label
_atom_site_type_symbol
_atom_site_fract_x
_atom_site_fract_y
_atom_site_fract_z
H1    H     0.73528061961896 0.90803138984698 0.39673533964581 
H2    H     0.82572027048032 0.78318151978349 0.37801591039726 
H3    H     0.65989835044882 0.01053765996548 0.40035365953592 
H4    H     0.56534874957943 0.13545624023910 0.39366078036179 
H5    H     0.75695301003376 0.70099338977153 0.04787669060312 
H6    H     0.59083499009483 0.74724830999692 0.73939602957349 
H7    H     0.44439622996298 0.84430181984503 0.56889959940579 
H8    H     0.35002692015741 0.97051294983627 0.57644532922320 
H9    H     0.33836192034933 0.09053498001248 0.75251492914872 
H10   H     0.40218029951264 0.17664736990055 0.07378682073282 
C1    C     0.70191670052828 0.87383807013407 0.25154138079032 
C2    C     0.60830515964582 0.90184362026537 0.07764871981157 
C3    C     0.55357924995433 0.97642872014750 0.08071200011825 
C4    C     0.75372852955901 0.80278626981887 0.24099124047454 
C5    C     0.56797594947513 0.85466839988635 0.89013106045917 
C6    C     0.58934555959129 0.02694081014444 0.25789544038052 
C7    C     0.46080432973146 0.00050943983979 0.89616997017139 
C8    C     0.71472455968906 0.75658214024715 0.05528041989245 
C9    C     0.62274148024106 0.78243511009875 0.88341252936243 
C10   C     0.53585337033526 0.09778672998132 0.25477565049232 
C11   C     0.47323598004873 0.88106879024807 0.71081744941703 
C12   C     0.42175803979891 0.95098726979595 0.71377905016858 
C13   C     0.40840760036452 0.07322722025710 0.89558955027404 
C14   C     0.44453831005538 0.12107398994986 0.07274358020953 
