data_stdin
_audit_creation_method 'critic2'
_audit_creation_date 2023-8-11
_chemical_formula_sum 'C14 H10'
_cell_formula_units_Z 4
_cell_length_a         8.0075490408
_cell_length_b        11.1581429309
_cell_length_c        15.9535012782
_cell_angle_alpha        89.9999
_cell_angle_beta        41.0968
_cell_angle_gamma        89.9999
_cell_volume           936.986641
_space_group_crystal_system monoclinic
_space_group_IT_number 14
_space_group_name_H-M_alt 'P2_1/c'
_space_group_name_Hall '-P 2ybc'
loop_
_symmetry_equiv_pos_site_id
_symmetry_equiv_pos_as_xyz
 1 'x,y,z'
 2 '-x,-y,-z'
 3 '-x,-1/2+y,-1/2-z'
 4 'x,-1/2-y,-1/2+z'
loop_
_atom_site_label
_atom_site_type_symbol
_atom_site_fract_x
_atom_site_fract_y
_atom_site_fract_z
H1    H     0.56601077058598 0.10858916016085 0.25724925953083 
H2    H     0.29633682006981 0.25360805969597 0.28596720980469 
H3    H     0.73077927089874 0.97932862983606 0.26357025978602 
H4    H     0.00063960010985 0.84173411030938 0.24163167965165 
H5    H     0.10896490956580 0.42665460984051 0.43328990025167 
H6    H     0.20547888929585 0.45560756028923 0.54854205031239 
H7    H     0.42181399092907 0.39570410980321 0.59382082958339 
H8    H     0.71583154116578 0.25905494969724 0.55766961952148 
H9    H     0.97184263916214 0.07877513973452 0.46494709023185 
H10   H     0.13044938993493 0.89095215975810 0.33835671991730 
C1    C     0.48901365955908 0.18420047037211 0.32116348013289 
C2    C     0.54461862033332 0.19728852040872 0.38634875006595 
C3    C     0.70067339900729 0.11253581017924 0.37326965036134 
C4    C     0.33660085952674 0.26590463042635 0.33708714028681 
C5    C     0.44250332954370 0.29870210019655 0.46805563008278 
C6    C     0.78803756915621 0.00387575955821 0.30509807030986 
C7    C     0.76511722089151 0.13778606043711 0.43399925975389 
C8    C     0.23160958018599 0.36399263990590 0.42006390998876 
C9    C     0.28434237025359 0.38000076027476 0.48428071983525 
C10   C     0.93909387038240 0.92556123968174 0.29314045964027 
C11   C     0.50414479960314 0.31821539957526 0.53111696007828 
C12   C     0.66461535921907 0.24257941015258 0.51187425011458 
C13   C     0.92222855001697 0.05710942040013 0.41922593990534 
C14   C     0.01028577087696 0.95299385021002 0.34904539957380 
