data_stdin
_audit_creation_method 'critic2'
_audit_creation_date 2023-8-11
_chemical_formula_sum 'C14 H10'
_cell_formula_units_Z 4
_cell_length_a         8.0419682792
_cell_length_b         6.0640329604
_cell_length_c        19.5452706610
_cell_angle_alpha        89.9994
_cell_angle_beta        92.3647
_cell_angle_gamma        90.0000
_cell_volume           952.347899
_space_group_crystal_system monoclinic
_space_group_IT_number 14
_space_group_name_H-M_alt 'P2_1/c'
_space_group_name_Hall '-P 2ybc'
loop_
_symmetry_equiv_pos_site_id
_symmetry_equiv_pos_as_xyz
 1 'x,y,z'
 2 '-x,-y,-z'
 3 '-x,-1/2+y,-1/2-z'
 4 'x,-1/2-y,-1/2+z'
loop_
_atom_site_label
_atom_site_type_symbol
_atom_site_fract_x
_atom_site_fract_y
_atom_site_fract_z
H1    H     0.41480537959181 0.30513189939991 0.77745416023612 
H2    H     0.42424532984024 0.27736906048594 0.90203094011616 
H3    H     0.40580796964627 0.31808109969185 0.67478202994408 
H4    H     0.37307924962694 0.33545946968714 0.55065508991437 
H5    H     0.29704050970756 0.95127792071487 0.95958306985551 
H6    H     0.16721464955910 0.65283610949863 0.88860929005842 
H7    H     0.08844715942026 0.49430303029728 0.77853449979015 
H8    H     0.06025225955747 0.52301688025911 0.65285173011489 
H9    H     0.09995439977474 0.72360953972577 0.54757296019179 
H10   H     0.21593437021774 0.04325349075028 0.48508458012586 
C1    C     0.36026380020031 0.16119835065498 0.80086673007009 
C2    C     0.28540825942693 0.99486675000450 0.75931442006161 
C3    C     0.27241527980263 0.00893295063873 0.68502522978728 
C4    C     0.36472690009561 0.14636937053352 0.87171307979899 
C5    C     0.21683913005036 0.80738549049768 0.79233711983122 
C6    C     0.33874120062674 0.18618252071803 0.64806019015775 
C7    C     0.18763754980901 0.83772273052889 0.64730978999793 
C8    C     0.29430272978161 0.96301994994278 0.90395026010353 
C9    C     0.22278910032843 0.79576186018568 0.86464719015960 
C10   C     0.31952758026591 0.19687069953984 0.57739548980789 
C11   C     0.13808645983979 0.63657585012846 0.75224953998276 
C12   C     0.12299793021612 0.65210504992282 0.68268792987344 
C13   C     0.16788909014278 0.85380466034793 0.57521095015184 
C14   C     0.23222210021635 0.03133043963195 0.54052202977090 
