data_stdin
_audit_creation_method 'critic2'
_audit_creation_date 2023-8-11
_chemical_formula_sum 'C14 H10'
_cell_formula_units_Z 4
_cell_length_a         8.5128159573
_cell_length_b         5.9225123473
_cell_length_c        19.1540163418
_cell_angle_alpha        89.9968
_cell_angle_beta        82.2230
_cell_angle_gamma        89.9998
_cell_volume           956.810658
_space_group_crystal_system monoclinic
_space_group_IT_number 14
_space_group_name_H-M_alt 'P2_1/c'
_space_group_name_Hall '-P 2ybc'
loop_
_symmetry_equiv_pos_site_id
_symmetry_equiv_pos_as_xyz
 1 'x,y,z'
 2 '-x,-y,-z'
 3 '-x,-1/2+y,-1/2-z'
 4 'x,-1/2-y,-1/2+z'
loop_
_atom_site_label
_atom_site_type_symbol
_atom_site_fract_x
_atom_site_fract_y
_atom_site_fract_z
H1    H     0.94285536985437 0.61148339047188 0.22116342021784 
H2    H     0.04226350992618 0.60421809053522 0.09589250983336 
H3    H     0.85446097952581 0.61328882992145 0.32338238023582 
H4    H     0.74250576990009 0.60429084949977 0.44730447013623 
H5    H     0.96582071036555 0.28976190942655 0.01916264022108 
H6    H     0.79499883974274 0.97847916060749 0.07283283026226 
H7    H     0.64365712055529 0.79982926997244 0.17411383980847 
H8    H     0.54060202950184 0.79545851022561 0.30049712007331 
H9    H     0.51241783969163 0.97054197007312 0.41594640013132 
H10   H     0.57018236015760 0.28403049950230 0.49571478989631 
C1    C     0.90887887966804 0.47197851072497 0.18960721017951 
C2    C     0.81027483021032 0.29828439965657 0.22143874984914 
C3    C     0.74848575947059 0.29686447026677 0.29599768021752 
C4    C     0.96462461018529 0.46882689944474 0.11818208976088 
C5    C     0.77049174051170 0.11666217952179 0.17793585008620 
C6    C     0.78003623950415 0.47120642078374 0.34252216023027 
C7    C     0.65094421942702 0.11286450071965 0.32382214006525 
C8    C     0.92266829997184 0.29168796043072 0.07532875983951 
C9    C     0.82740566939860 0.11814839917654 0.10508070020457 
C10   C     0.71651557028993 0.46637648941390 0.41303118004287 
C11   C     0.67266809997433 0.93591542929931 0.20828476024547 
C12   C     0.61533415975732 0.93387197983689 0.27828645984636 
C13   C     0.58795351024776 0.11136896948912 0.39606852005131 
C14   C     0.61944849993816 0.28573858010667 0.44021543990422 
