data_stdin
_audit_creation_method 'critic2'
_audit_creation_date 2023-8-11
_chemical_formula_sum 'C14 H10'
_cell_formula_units_Z 8
_cell_length_a        19.3847559809
_cell_length_b        19.1412621171
_cell_length_c         5.5458883997
_cell_angle_alpha        89.9996
_cell_angle_beta        89.9997
_cell_angle_gamma        90.0005
_cell_volume          2057.794655
_space_group_crystal_system orthorhombic
_space_group_IT_number 61
_space_group_name_H-M_alt 'Pbca'
_space_group_name_Hall '-P 2ac 2ab'
loop_
_symmetry_equiv_pos_site_id
_symmetry_equiv_pos_as_xyz
 1 'x,y,z'
 2 '-x,-y,-z'
 3 '-x,-1/2+y,-1/2-z'
 4 'x,-1/2-y,-1/2+z'
 5 '-1/2-x,-y,-1/2+z'
 6 '-1/2+x,y,-1/2-z'
 7 '-1/2+x,-1/2-y,-z'
 8 '-1/2-x,-1/2+y,z'
loop_
_atom_site_label
_atom_site_type_symbol
_atom_site_fract_x
_atom_site_fract_y
_atom_site_fract_z
H1    H     0.21520767999100 0.52604586006429 0.54726860048627 
H2    H     0.09568781983027 0.48666094987378 0.54178084952919 
H3    H     0.31199742008857 0.56154456988586 0.54987230921335 
H4    H     0.43084387014291 0.60124795021604 0.52785730015608 
H5    H     0.01453462992493 0.52840491991080 0.22134829017436 
H6    H     0.05707742982595 0.60941982988205 0.90358899999066 
H7    H     0.14912235997948 0.67834574014286 0.72148403000771 
H8    H     0.27068899974636 0.71506770021903 0.70757884003447 
H9    H     0.38694786990854 0.71217718995633 0.86848813069489 
H10   H     0.47122831997288 0.67523462002383 0.18319534931630 
C1    C     0.18135020019800 0.54507413998466 0.40570117065928 
C2    C     0.20704655012228 0.59098220002828 0.22749499006028 
C3    C     0.27848616022409 0.61393016982079 0.22183236050405 
C4    C     0.11333799010270 0.52283349983250 0.40354196076831 
C5    C     0.16073418974736 0.61460488994107 0.04418019043441 
C6    C     0.32719030014834 0.59441562989124 0.39917885000866 
C7    C     0.30100871011468 0.65782702988695 0.02908967088396 
C8    C     0.06792185023353 0.54613776993804 0.22275124057840 
C9    C     0.09145768985448 0.59139287023832 0.04633018082815 
C10   C     0.39504109975342 0.61677850019634 0.38647389033606 
C11   C     0.18519803019009 0.66057790019220 0.85915880040569 
C12   C     0.25259127984480 0.68085929985185 0.85083934970560 
C13   C     0.37088634014783 0.67893384976092 0.01759322969935 
C14   C     0.41747635006920 0.65880193002193 0.19340967955954 
