data_stdin
_audit_creation_method 'critic2'
_audit_creation_date 2023-8-11
_chemical_formula_sum 'C14 H10'
_cell_formula_units_Z 4
_cell_length_a         9.2579279307
_cell_length_b        11.8800856700
_cell_length_c         8.6256280754
_cell_angle_alpha        90.0000
_cell_angle_beta        81.4431
_cell_angle_gamma        90.0000
_cell_volume           938.129189
_space_group_crystal_system monoclinic
_space_group_IT_number 14
_space_group_name_H-M_alt 'P2_1/c'
_space_group_name_Hall '-P 2ybc'
loop_
_symmetry_equiv_pos_site_id
_symmetry_equiv_pos_as_xyz
 1 'x,y,z'
 2 '-x,-y,-z'
 3 '-x,-1/2+y,-1/2-z'
 4 'x,-1/2-y,-1/2+z'
loop_
_atom_site_label
_atom_site_type_symbol
_atom_site_fract_x
_atom_site_fract_y
_atom_site_fract_z
H1    H     0.47309605057756 0.23271912039031 0.09766856946258 
H2    H     0.21639066972190 0.22628002997993 0.21312141023427 
H3    H     0.68186960041179 0.23908433983580 0.99501966010645 
H4    H     0.93349760008702 0.25038554968463 0.86265504958827 
H5    H     0.03350220978548 0.35094103964080 0.11200814979573 
H6    H     0.11605368962487 0.48749997962418 0.89970535981688 
H7    H     0.30876551992635 0.57485910022733 0.71781612951717 
H8    H     0.56668026988715 0.58442110993905 0.59390155032260 
H9    H     0.81396120009277 0.51395593975517 0.56254045048650 
H10   H     0.00274505972818 0.38553011984348 0.64224727021453 
C1    C     0.39641266957229 0.28788034025589 0.05080028998216 
C2    C     0.44639400995519 0.36315064980601 0.92753883952572 
C3    C     0.59791661049219 0.36849617015993 0.85395358030916 
C4    C     0.25059384045944 0.28380088032796 0.11635035960325 
C5    C     0.34247042988442 0.43711569983009 0.87420733044368 
C6    C     0.70806128055185 0.29860874957942 0.89912230970972 
C7    C     0.63874238956099 0.44785726040323 0.73073466039083 
C8    C     0.14823276017835 0.35515615975973 0.06095788959525 
C9    C     0.19399627983311 0.43093548961469 0.94230269024423 
C10   C     0.85095360006897 0.30478111964869 0.82424482021942 
C11   C     0.38921143030407 0.51700626019766 0.75313471001686 
C12   C     0.53159766036067 0.52258612962304 0.68478730953386 
C13   C     0.78543377990020 0.45247006985143 0.65591579016032 
C14   C     0.89020672044539 0.38161965041918 0.70080646002749 
