data_stdin
_audit_creation_method 'critic2'
_audit_creation_date 2023-8-11
_chemical_formula_sum 'C14 H10'
_cell_formula_units_Z 4
_cell_length_a         6.0295598851
_cell_length_b        10.3908492804
_cell_length_c        15.0537513754
_cell_angle_alpha        89.9999
_cell_angle_beta        79.9870
_cell_angle_gamma        89.9990
_cell_volume           928.785490
_space_group_crystal_system monoclinic
_space_group_IT_number 14
_space_group_name_H-M_alt 'P2_1/c'
_space_group_name_Hall '-P 2ybc'
loop_
_symmetry_equiv_pos_site_id
_symmetry_equiv_pos_as_xyz
 1 'x,y,z'
 2 '-x,-y,-z'
 3 '-x,-1/2+y,-1/2-z'
 4 'x,-1/2-y,-1/2+z'
loop_
_atom_site_label
_atom_site_type_symbol
_atom_site_fract_x
_atom_site_fract_y
_atom_site_fract_z
H1    H     0.63089055965132 0.89977488979937 0.00545803974758 
H2    H     0.55276353949377 0.74658867037743 0.13009324989172 
H3    H     0.69916848941960 0.01972501021831 0.90162185997931 
H4    H     0.79626370072356 0.16606866039651 0.77304717025451 
H5    H     0.84441028061445 0.58421873993730 0.15479194030552 
H6    H     0.20901441067536 0.57763186957880 0.05086850998903 
H7    H     0.46655285956160 0.66052409952775 0.92130460992626 
H8    H     0.55653759046219 0.81279272029343 0.79413634012480 
H9    H     0.44946475019365 0.99067024039460 0.70475025998787 
H10   H     0.16797321075168 0.15249047028645 0.67308481014110 
C1    C     0.75930676959934 0.82997380032516 0.01435307004866 
C2    C     0.96658721037598 0.82880400029830 0.95385726027941 
C3    C     0.01787468954841 0.91749750026016 0.87848315033190 
C4    C     0.71473047999635 0.74319547016357 0.08497540001390 
C5    C     0.13100451078562 0.73545194983431 0.96800312967666 
C6    C     0.86373531952634 0.01152195983705 0.85911280011619 
C7    C     0.23280087944406 0.91046631961344 0.82099700030139 
C8    C     0.87740627053813 0.65173865027424 0.09872844028889 
C9    C     0.08225383001028 0.64835505958514 0.04091698972364 
C10   C     0.91738904970143 0.09436891978292 0.78662800025802 
C11   C     0.34342671073086 0.73174313963407 0.90842919974263 
C12   C     0.39307725963017 0.81612970015091 0.83831844019873 
C13   C     0.28412115974328 0.99655855034628 0.74745404996241 
C14   C     0.12898130995123 0.08696297997275 0.73009610031862 
