data_stdin
_audit_creation_method 'critic2'
_audit_creation_date 2023-8-11
_chemical_formula_sum 'C14 H10'
_cell_formula_units_Z 2
_cell_length_a         6.3670690390
_cell_length_b         5.2023180382
_cell_length_c        14.5114922809
_cell_angle_alpha        90.0009
_cell_angle_beta        75.0543
_cell_angle_gamma        89.9980
_cell_volume           464.410858
_space_group_crystal_system monoclinic
_space_group_IT_number 7
_space_group_name_H-M_alt 'Pc'
_space_group_name_Hall 'P -2yc'
loop_
_symmetry_equiv_pos_site_id
_symmetry_equiv_pos_as_xyz
 1 'x,y,z'
 2 'x,-y,-1/2+z'
loop_
_atom_site_label
_atom_site_type_symbol
_atom_site_fract_x
_atom_site_fract_y
_atom_site_fract_z
H1    H     0.06584947006172 0.52754493057388 0.01547382017388 
H2    H     0.96902296921992 0.83351469931370 0.14851490034897 
H3    H     0.13611022925485 0.27351976935607 0.90956996034749 
H4    H     0.21595733924786 0.94254697061984 0.78564970010305 
H5    H     0.59379475983071 0.85072763990455 0.25276729999547 
H6    H     0.31031417004114 0.55737434949297 0.22140506988276 
H7    H     0.20092618027188 0.21541943934490 0.12888549008875 
H8    H     0.29090121932698 0.89163665010132 0.00079295017122 
H9    H     0.55310012932496 0.68011303957538 0.87118210038822 
H10   H     0.92267302933765 0.64099899957359 0.76551132037439 
C1    C     0.90017984030347 0.53030105036378 0.06025328017238 
C2    C     0.74491940006234 0.35795923016906 0.04141452997740 
C3    C     0.79663094075541 0.17051124065110 0.96471294984046 
C4    C     0.84615987035298 0.70384890090030 0.13499299995437 
C5    C     0.52825807998963 0.36997951071953 0.10119223983305 
C6    C     0.00627680030883 0.14567942995682 0.90225840023323 
C7    C     0.63059836033148 0.99974049062083 0.95196125973004 
C8    C     0.63315507008403 0.71346021956770 0.19422693999014 
C9    C     0.47683067952685 0.54935847957688 0.17697580999887 
C10   C     0.05202918989350 0.95811906911400 0.83209170994636 
C11   C     0.36604706965993 0.19996860999133 0.08378050992782 
C12   C     0.41545916036939 0.02123012976645 0.01277047002646 
C13   C     0.68068908023267 0.81089817967765 0.87953086983411 
C14   C     0.88832595933524 0.78876853000820 0.82048239982694 
