data_stdin
_audit_creation_method 'critic2'
_audit_creation_date 2023-8-11
_chemical_formula_sum 'C14 H10'
_cell_formula_units_Z 4
_cell_length_a         9.7883914320
_cell_length_b         5.5912126935
_cell_length_c        19.7681638794
_cell_angle_alpha        90.0020
_cell_angle_beta        60.1656
_cell_angle_gamma        90.0011
_cell_volume           938.504560
_space_group_crystal_system monoclinic
_space_group_IT_number 14
_space_group_name_H-M_alt 'P2_1/c'
_space_group_name_Hall '-P 2ybc'
loop_
_symmetry_equiv_pos_site_id
_symmetry_equiv_pos_as_xyz
 1 'x,y,z'
 2 '-x,-y,-z'
 3 '-x,-1/2+y,-1/2-z'
 4 'x,-1/2-y,-1/2+z'
loop_
_atom_site_label
_atom_site_type_symbol
_atom_site_fract_x
_atom_site_fract_y
_atom_site_fract_z
H1    H     0.92069516949422 0.84489824916515 0.28541843008808 
H2    H     0.90500138030850 0.85401158980361 0.41225489014754 
H3    H     0.92042792947023 0.83995151007331 0.18393075018958 
H4    H     0.93300806009788 0.80162411051598 0.05813210982822 
H5    H     0.74393419031116 0.55113718937807 0.51452737985037 
H6    H     0.60737626984847 0.22942907066850 0.48411409992987 
H7    H     0.54251677053111 0.03203538945733 0.39417575977278 
H8    H     0.56454985954804 0.00259983074226 0.26465682009613 
H9    H     0.66198817960006 0.14993900023626 0.13405640018261 
H10   H     0.80577066004725 0.45524968035825 0.03080495027161 
C1    C     0.85159955007124 0.70876787033672 0.32806615998535 
C2    C     0.77461138960620 0.52908007948412 0.30918899999303 
C3    C     0.78343052004461 0.51573948085189 0.23367588018975 
C4    C     0.84207478990365 0.71492835971493 0.40036289011252 
C5    C     0.68665277949758 0.35190774979838 0.36683718999929 
C6    C     0.86316058047967 0.68767100997256 0.17426498991496 
C7    C     0.70915330980855 0.32019240944008 0.21815177982553 
C8    C     0.75326017999337 0.54255635927732 0.45735223021937 
C9    C     0.67716598033607 0.36371160965484 0.44050514004429 
C10   C     0.87022615039377 0.66660538999886 0.10274721006838 
C11   C     0.60975975012854 0.16424959945716 0.34928088983861 
C12   C     0.62192817979099 0.14754160926475 0.27770300987539 
C13   C     0.71986767005518 0.30094533994285 0.14431305987169 
C14   C     0.79896983001093 0.47142465997152 0.08726917028645 
