data_stdin
_audit_creation_method 'critic2'
_audit_creation_date 2023-8-11
_chemical_formula_sum 'C14 H10'
_cell_formula_units_Z 4
_cell_length_a        19.7106811002
_cell_length_b         3.8516843487
_cell_length_c        12.1123813034
_cell_angle_alpha        90.0037
_cell_angle_beta        89.9989
_cell_angle_gamma        90.0015
_cell_volume           919.563773
_space_group_crystal_system orthorhombic
_space_group_IT_number 29
_space_group_name_H-M_alt 'Pca2_1'
_space_group_name_Hall 'P 2c -2ac'
loop_
_symmetry_equiv_pos_site_id
_symmetry_equiv_pos_as_xyz
 1 'x,y,z'
 2 '-x,-y,-1/2+z'
 3 '-1/2-x,y,-1/2+z'
 4 '-1/2+x,-y,z'
loop_
_atom_site_label
_atom_site_type_symbol
_atom_site_fract_x
_atom_site_fract_y
_atom_site_fract_z
H1    H     0.24679021004265 0.90822528019145 0.00455398995882 
H2    H     0.13605603009638 0.78500394091474 0.92202948019102 
H3    H     0.33833925996435 0.99883226975136 0.06780987967825 
H4    H     0.45193248980769 0.10534932974390 0.14111950982226 
H5    H     0.12822449018871 0.52859066060122 0.73292823978334 
H6    H     0.23335641005913 0.39182823087174 0.62978789024959 
H7    H     0.35574379994089 0.36902682953219 0.61650902996927 
H8    H     0.46910136013189 0.47389245062974 0.69585244984099 
H9    H     0.54094450987361 0.69358765089031 0.84475306010491 
H10   H     0.55424685022803 0.95921336996723 0.03065720005337 
C1    C     0.24488645015371 0.79228649041384 0.92279527007760 
C2    C     0.30573568007427 0.71669584012076 0.86591627039487 
C3    C     0.37247770001204 0.78376249117537 0.91196762020032 
C4    C     0.18211330980194 0.72373361122291 0.87638450981875 
C5    C     0.30073140988320 0.56768992002030 0.75828574038241 
C6    C     0.38198056984922 0.93191931102509 0.01742978004085 
C7    C     0.43133009022822 0.69632139877994 0.84906804985562 
C8    C     0.17752844015374 0.57829164095156 0.77019140024810 
C9    C     0.23609649988573 0.50256364970492 0.71239268011102 
C10   C     0.44618354974838 0.99175301066218 0.05938410025274 
C11   C     0.36108417002078 0.48477154085225 0.69817648020999 
C12   C     0.42370612014916 0.54397729997963 0.74204843977810 
C13   C     0.49642608986830 0.76195511988441 0.89346337019584 
C14   C     0.50402676999839 0.90833912108016 0.99689024034856 
