data_stdin
_audit_creation_method 'critic2'
_audit_creation_date 2023-8-11
_chemical_formula_sum 'C14 H10'
_cell_formula_units_Z 8
_cell_length_a        19.9126597466
_cell_length_b         5.7032512649
_cell_length_c        19.6968922721
_cell_angle_alpha        89.9984
_cell_angle_beta        58.3716
_cell_angle_gamma        89.9975
_cell_volume          1904.658730
_space_group_crystal_system monoclinic
_space_group_IT_number 15
_space_group_name_H-M_alt 'C2/c'
_space_group_name_Hall '-C 2yc'
loop_
_symmetry_equiv_pos_site_id
_symmetry_equiv_pos_as_xyz
 1 'x,y,z'
 2 '-x,-y,-z'
 3 '-1/2-x,-1/2+y,-1/2-z'
 4 '-1/2+x,-1/2-y,-1/2+z'
 5 '-1/2+x,-1/2+y,z'
 6 '-1/2-x,-1/2-y,-z'
 7 '-x,y,-1/2-z'
 8 'x,-y,-1/2+z'
loop_
_atom_site_label
_atom_site_type_symbol
_atom_site_fract_x
_atom_site_fract_y
_atom_site_fract_z
H1    H     0.20718715970936 0.13536630063777 0.29056955016377 
H2    H     0.08481429015763 0.12719451972384 0.29054037998482 
H3    H     0.30701978004619 0.13385804914268 0.29140208019629 
H4    H     0.42734313007940 0.12007506003310 0.29465334015527 
H5    H     0.98660812984687 0.80462420981218 0.36034978986877 
H6    H     0.01675291975060 0.48445368060062 0.42592741013844 
H7    H     0.10304053967655 0.30214236010276 0.46324473015243 
H8    H     0.22556746011986 0.30260816977841 0.46560740984676 
H9    H     0.34986746980845 0.48267635981837 0.43224807019687 
H10   H     0.45065239982121 0.79517420046490 0.36538362999266 
C1    C     0.16603506010333 0.99251543970184 0.32098845979147 
C2    C     0.18406732017494 0.81557823971458 0.35922438009709 
C3    C     0.25658212010773 0.81457090955010 0.36018273992585 
C4    C     0.09630471014552 0.98883986017437 0.32123313987877 
C5    C     0.12870140991475 0.62910109039687 0.39746043995023 
C6    C     0.31499979033118 0.98986706991508 0.32264804983311 
C7    C     0.27034712019660 0.62794188086679 0.39979627009104 
C8    C     0.04148737013903 0.80665083028135 0.35999772982750 
C9    C     0.05802317010121 0.62870941998208 0.39681226976060 
C10   C     0.38357929017193 0.98235156947185 0.32445161994156 
C11   C     0.14545351987231 0.44446613007437 0.43569530006859 
C12   C     0.21319241967199 0.44492806981540 0.43699612021189 
C13   C     0.34069521007715 0.62492850940259 0.40104248985691 
C14   C     0.39672712996875 0.79931038021407 0.36401604026289 
