data_stdin
_audit_creation_method 'critic2'
_audit_creation_date 2023-8-11
_chemical_formula_sum 'C14 H10'
_cell_formula_units_Z 8
_cell_length_a        19.3280019602
_cell_length_b         9.3200290219
_cell_length_c        10.5143917201
_cell_angle_alpha        90.0000
_cell_angle_beta        89.9997
_cell_angle_gamma        90.0014
_cell_volume          1894.036650
_space_group_crystal_system orthorhombic
_space_group_IT_number 61
_space_group_name_H-M_alt 'Pbca'
_space_group_name_Hall '-P 2ac 2ab'
loop_
_symmetry_equiv_pos_site_id
_symmetry_equiv_pos_as_xyz
 1 'x,y,z'
 2 '-x,-y,-z'
 3 '-1/2+x,-1/2-y,-z'
 4 '-1/2-x,-1/2+y,z'
 5 '-x,-1/2+y,-1/2-z'
 6 'x,-1/2-y,-1/2+z'
 7 '-1/2-x,-y,-1/2+z'
 8 '-1/2+x,y,-1/2-z'
loop_
_atom_site_label
_atom_site_type_symbol
_atom_site_fract_x
_atom_site_fract_y
_atom_site_fract_z
H1    H     0.12524165002538 0.08991221964452 0.74291336990095 
H2    H     0.25178912993673 0.09943719951231 0.74994520962028 
H3    H     0.02212703009029 0.08584376053090 0.75074445971434 
H4    H     0.89664071011695 0.06525821000028 0.75209728018974 
H5    H     0.31811433006190 0.92837539976525 0.88592717984792 
H6    H     0.25522507020073 0.74309374007393 0.01047476042050 
H7    H     0.14873458989948 0.62765983953112 0.07636963982165 
H8    H     0.02123772017812 0.60817651023121 0.06917402975457 
H9    H     0.90987422010058 0.69385711962414 0.99545262966782 
H10   H     0.83850550011913 0.86805934976966 0.87228605002211 
C1    C     0.15290028998672 0.01219504017312 0.80098147009032 
C2    C     0.11569319992867 0.90809375009911 0.87091853032389 
C3    C     0.04071300001022 0.89869900973526 0.86917880013327 
C4    C     0.22447009990980 0.01852264979336 0.80526978005134 
C5    C     0.15397875016089 0.80901401047653 0.94693937999180 
C6    C     0.99872836984017 0.99706541962080 0.80221087984991 
C7    C     0.00741046974513 0.78774546002958 0.94013648015015 
C8    C     0.26192309003827 0.92217382032442 0.88210638023131 
C9    C     0.22692909995668 0.81960868010283 0.95196117001086 
C10   C     0.92731711007712 0.98562580978173 0.80270771986576 
C11   C     0.11835559010112 0.70060684981240 0.01774278981158 
C12   C     0.04801774974970 0.68973247013825 0.01368507041448 
C13   C     0.93434681017570 0.77808161979527 0.93924590009999 
C14   C     0.89472974003935 0.87500920026971 0.87125555993672 
