data_stdin
_audit_creation_method 'critic2'
_audit_creation_date 2023-8-11
_chemical_formula_sum 'C14 H10'
_cell_formula_units_Z 4
_cell_length_a         8.3800317125
_cell_length_b        18.5398749107
_cell_length_c         6.2740959219
_cell_angle_alpha        89.9999
_cell_angle_beta        89.9982
_cell_angle_gamma        90.0026
_cell_volume           974.773278
_space_group_crystal_system monoclinic
_space_group_IT_number 9
_space_group_name_H-M_alt 'Cc'
_space_group_name_Hall 'C -2yc'
loop_
_symmetry_equiv_pos_site_id
_symmetry_equiv_pos_as_xyz
 1 'x,y,z'
 2 'x,-y,-1/2+z'
 3 '-1/2+x,-1/2+y,z'
 4 '-1/2+x,-1/2-y,-1/2+z'
loop_
_atom_site_label
_atom_site_type_symbol
_atom_site_fract_x
_atom_site_fract_y
_atom_site_fract_z
H1    H     0.00310277046816 0.19686776003531 0.95764499932229 
H2    H     0.99517067015442 0.06525555021307 0.95758170052174 
H3    H     0.00305182951719 0.30405264025590 0.95701084996769 
H4    H     0.99497829039723 0.43566820018414 0.95717254012375 
H5    H     0.73431524052060 0.99989879987289 0.95747589055800 
H6    H     0.48112236956676 0.07003791981872 0.95719475927317 
H7    H     0.33899460007583 0.18368082013692 0.95714973966625 
H8    H     0.33892677055534 0.31709896988447 0.95743459035287 
H9    H     0.48094575000256 0.43077726993593 0.95765261965155 
H10   H     0.73407183976201 0.50096283973576 0.95725377069535 
C1    C     0.88786025040339 0.17001026022693 0.95753085981865 
C2    C     0.74606515052204 0.21126948996659 0.95739646941368 
C3    C     0.74602529969371 0.28959526023005 0.95725658992986 
C4    C     0.88377377956977 0.09537533980544 0.95755363963165 
C5    C     0.59717860958458 0.17379394976725 0.95737447064098 
C6    C     0.88778144947325 0.33088488001025 0.95715134925087 
C7    C     0.59709887024220 0.32704096992779 0.95732469076062 
C8    C     0.73683123017315 0.05863570989914 0.95743335075569 
C9    C     0.59597285026370 0.09752212997684 0.95733955057139 
C10   C     0.88361509949378 0.40551995989727 0.95719285004924 
C11   C     0.45077002029617 0.21364469004956 0.95728337963983 
C12   C     0.45073269000472 0.28715791001005 0.95738119991032 
C13   C     0.59581940947048 0.40331168017386 0.95744526976188 
C14   C     0.73663766004278 0.44222849016192 0.95736870960011 
