data_stdin
_audit_creation_method 'critic2'
_audit_creation_date 2023-8-11
_chemical_formula_sum 'C14 H10'
_cell_formula_units_Z 4
_cell_length_a        11.9525642465
_cell_length_b        19.6355383048
_cell_length_c         3.8978113332
_cell_angle_alpha        90.0012
_cell_angle_beta        90.0022
_cell_angle_gamma        90.0068
_cell_volume           914.796953
_space_group_crystal_system orthorhombic
_space_group_IT_number 33
_space_group_name_H-M_alt 'Pna2_1'
_space_group_name_Hall 'P 2c -2n'
loop_
_symmetry_equiv_pos_site_id
_symmetry_equiv_pos_as_xyz
 1 'x,y,z'
 2 '-x,-y,-1/2+z'
 3 '-1/2-x,-1/2+y,-1/2+z'
 4 '-1/2+x,-1/2-y,z'
loop_
_atom_site_label
_atom_site_type_symbol
_atom_site_fract_x
_atom_site_fract_y
_atom_site_fract_z
H1    H     0.93233201986755 0.99808729998210 0.94826365944141 
H2    H     0.84967249028080 0.88486159982058 0.98996304937769 
H3    H     0.00156564020968 0.09062012004581 0.95606142982163 
H4    H     0.07523094019255 0.20647565997904 0.93190980057890 
H5    H     0.66450080039061 0.86802627991167 0.27715726079392 
H6    H     0.56269744992472 0.96825560981152 0.51157325120892 
H7    H     0.54683515981446 0.08989785996354 0.60404008066405 
H8    H     0.62419952971334 0.20611752018864 0.55915634094106 
H9    H     0.77158767017477 0.28356399999851 0.38079990991002 
H10   H     0.96086113002440 0.30451856985565 0.13837682929203 
C1    C     0.85182374997885 0.99245529023702 0.07532157019005 
C2    C     0.79613372990324 0.05036594986821 0.20638138966771 
C3    C     0.84280068019106 0.11853823017807 0.18762472899967 
C4    C     0.80488326963010 0.92814703001902 0.09797732949293 
C5    C     0.68880384008156 0.04088385993527 0.36012546916078 
C6    C     0.94997447008801 0.13208655015411 0.05120122005057 
C7    C     0.77857064040792 0.17460221009106 0.31234696105100 
C8    C     0.70024933958700 0.91888018009547 0.25641266039157 
C9    C     0.64335776996909 0.97459049976815 0.38499670965603 
C10   C     0.99190404976656 0.19772057012506 0.03620754881995 
C11   C     0.62833591038831 0.09851695004208 0.48698628951790 
C12   C     0.67118006005615 0.16266158020599 0.46244569094397 
C13   C     0.82229245022949 0.24130643989412 0.28791611954586 
C14   C     0.92736634978542 0.25302642003476 0.15232661098671 
