data_stdin
_audit_creation_method 'critic2'
_audit_creation_date 2023-8-11
_chemical_formula_sum 'C14 H10'
_cell_formula_units_Z 18
_cell_length_a        16.0845294431
_cell_length_b        16.0701770522
_cell_length_c        19.6919247150
_cell_angle_alpha        89.9801
_cell_angle_beta        89.9994
_cell_angle_gamma       120.0271
_cell_volume          4406.857395
_space_group_crystal_system monoclinic
_space_group_IT_number 9
_space_group_name_H-M_alt 'Cc'
_space_group_name_Hall 'C -2yc'
loop_
_symmetry_equiv_pos_site_id
_symmetry_equiv_pos_as_xyz
 1 'x,y,z'
 2 '-2/3-x+y,-1/3+y,-5/6+z'
 3 '-1/3+x,-2/3+y,-2/3+z'
 4 '-x+y,y,-1/2+z'
 5 '-2/3+x,-1/3+y,-1/3+z'
 6 '-1/3-x+y,-2/3+y,-1/6+z'
loop_
_atom_site_label
_atom_site_type_symbol
_atom_site_fract_x
_atom_site_fract_y
_atom_site_fract_z
H1    H     0.89962684992533 0.99366760015516 0.33108540017901 
H2    H     0.00645670989672 0.90592718985189 0.33103580001269 
H3    H     0.09432000980797 0.10058930998468 0.33107395014188 
H4    H     0.86599097993942 0.90640278975922 0.22351619005790 
H5    H     0.09371972038359 0.95949424028386 0.22344830021120 
H6    H     0.04071857997920 0.13422186009939 0.22349199022242 
H7    H     0.92517950002523 0.06040822992686 0.42120913012425 
H8    H     0.93970959958230 0.86479513968517 0.42117606991523 
H9    H     0.13542105009793 0.07499192972846 0.42121962012300 
H10   H     0.94895526023063 0.13906836019442 0.53129111981165 
H11   H     0.86104160961400 0.80997133969592 0.53128530996913 
H12   H     0.19022478993017 0.05118500009455 0.53132599019066 
H13   H     0.72804651993600 0.73775595981511 0.21405594997869 
H14   H     0.26220155971597 0.99014249984187 0.21402314976805 
H15   H     0.00985585019121 0.27202543989553 0.21404466980697 
H16   H     0.62604051996000 0.65908798020405 0.31444770004830 
H17   H     0.34070961008392 0.96682028004614 0.31447072010468 
H18   H     0.03301682039115 0.37389377032259 0.31445857001313 
H19   H     0.58663095967562 0.66042305987484 0.43289331006014 
H20   H     0.33928084014557 0.92612199973509 0.43295341998820 
H21   H     0.07366106023343 0.41322839014373 0.43291839014977 
H22   H     0.61698898015577 0.74331032985753 0.54331705981675 
H23   H     0.25637774027051 0.87362565004778 0.54339348012754 
H24   H     0.12617298001289 0.38287644014740 0.54335440020686 
H25   H     0.70691050021094 0.88464480030709 0.61340968977658 
H26   H     0.11512908018670 0.82227052978610 0.61347842000169 
H27   H     0.17759032022429 0.29299889011734 0.61346201981396 
H28   H     0.84047088962542 0.05382527986469 0.62820614981201 
H29   H     0.94611500960275 0.78671974971228 0.62824980011534 
H30   H     0.21327319984720 0.15952623994845 0.62826631006983 
C1    C     0.83990874024494 0.92020051999761 0.32864814991290 
C2    C     0.07985093982017 0.91965451995510 0.32861358013385 
C3    C     0.08051212009259 0.16024921034792 0.32863984006876 
C4    C     0.78251911004842 0.87708930975960 0.38679960014455 
C5    C     0.12286789988532 0.90537982011520 0.38679629986801 
C6    C     0.09468846031725 0.21756108008189 0.38680570012437 
C7    C     0.80024225006187 0.92597319979008 0.45184546001822 
C8    C     0.07397861027725 0.87425003011597 0.45185238002625 
C9    C     0.12581415978237 0.19982587003000 0.45186215024732 
C10   C     0.82080293998538 0.87113304023999 0.26752549021913 
C11   C     0.12891908967687 0.94958271979921 0.26748114021927 
C12   C     0.05055970037109 0.17935077029104 0.26751092996877 
C13   C     0.70414655007930 0.78093456008449 0.38077646994364 
C14   C     0.21893216986432 0.92313711972033 0.38079394001003 
C15   C     0.07681461960962 0.29585185979521 0.38078873010814 
C16   C     0.87613836003438 0.02090753969534 0.46238695019603 
C17   C     0.97913520967136 0.85525158974989 0.46237801983409 
C18   C     0.14489768991437 0.12398283993162 0.46240528981661 
C19   C     0.73907877039077 0.87640688020397 0.50803645001606 
C20   C     0.12344654983337 0.86264942972005 0.50807161979908 
C21   C     0.13731178975870 0.26090947989051 0.50806538004657 
C22   C     0.74307786034244 0.77663575031203 0.26187513007683 
C23   C     0.22332428010657 0.96632543004938 0.26185138016860 
C24   C     0.03369074977947 0.25699295988567 0.26186884985282 
C25   C     0.68579336981133 0.73262145981069 0.31779542025366 
C26   C     0.26724903972954 0.95306448973268 0.31780321995326 
C27   C     0.04686062005230 0.31420113028425 0.31780281023273 
C28   C     0.89011390013649 0.06580562989180 0.52477184016774 
C29   C     0.93423353014817 0.82436450022421 0.52477643014300 
C30   C     0.17576668024624 0.10998463998500 0.52480450996898 
C31   C     0.64550041031730 0.73389828021802 0.43865830023077 
C32   C     0.26587283983931 0.91153063019156 0.43870458002331 
C33   C     0.08832839973892 0.35441838991269 0.43868212984065 
C34   C     0.66228747012008 0.77968259989518 0.49965533016936 
C35   C     0.22008007027814 0.88255355025513 0.49970929004413 
C36   C     0.11731746966537 0.33763481993928 0.49968446992336 
C37   C     0.75512830991528 0.92343309014390 0.57143544010560 
C38   C     0.07641607009064 0.83170372967292 0.57148154007660 
C39   C     0.16823659004646 0.24483871023662 0.57147801001423 
C40   C     0.82907465004522 0.01703218021059 0.57972429984098 
C41   C     0.98290967036603 0.81209072031487 0.57975686996511 
C42   C     0.18792832017514 0.17094376001936 0.57977039978515 
