data_stdin
_audit_creation_method 'critic2'
_audit_creation_date 2023-8-11
_chemical_formula_sum 'C50 H28'
_cell_formula_units_Z 2
_cell_length_a        15.8603086850
_cell_length_b         9.9848858744
_cell_length_c        10.9928749544
_cell_angle_alpha        62.6643
_cell_angle_beta        77.0089
_cell_angle_gamma        92.5985
_cell_volume          1484.525726
_space_group_crystal_system triclinic
_space_group_IT_number 2
_space_group_name_H-M_alt 'P-1'
_space_group_name_Hall '-P 1'
loop_
_symmetry_equiv_pos_site_id
_symmetry_equiv_pos_as_xyz
 1 'x,y,z'
 2 '-x,-y,-z'
loop_
_atom_site_label
_atom_site_type_symbol
_atom_site_fract_x
_atom_site_fract_y
_atom_site_fract_z
C1    C     0.74464157231307 0.76459510494990 0.01573916638954 
C2    C     0.80988930839434 0.68721363923186 0.08099198975804 
C3    C     0.68479304846407 0.70016469452600 0.96763776234599 
C4    C     0.85083258740472 0.57443876517394 0.05239347823346 
C5    C     0.65425538835393 0.53784505754057 0.02893004566701 
C6    C     0.85693057802922 0.56085041118885 0.92498572647361 
C7    C     0.65329337469621 0.42341682156645 0.17135018870443 
C8    C     0.85660139601152 0.68383817010995 0.78693389098463 
C9    C     0.73901828106380 0.91387237431917 0.99785343842440 
C10   C     0.83943813792335 0.73142827762866 0.17246752523960 
C11   C     0.64947044748027 0.80329351320434 0.85893508288719 
C12   C     0.89147147654276 0.47358533122082 0.15405500779836 
C13   C     0.62003573615030 0.48847493895963 0.94418941117612 
C14   C     0.86914308892709 0.41582302432067 0.93468163182867 
C15   C     0.65126892196511 0.45091665895320 0.29062824397520 
C16   C     0.88356113862107 0.84572717365606 0.73726005527140 
C17   C     0.65131677847202 0.26906308694320 0.19776278822867 
C18   C     0.83707546293698 0.64355164458687 0.68644019301645 
C19   C     0.77776759928432 0.96417976169125 0.07804499785796 
C20   C     0.82049222732632 0.87033612878340 0.17100647970520 
C21   C     0.69444188765494 0.01068428932018 0.90056942852282 
C22   C     0.89051082661570 0.63969771023781 0.26004867191345 
C23   C     0.65665822435572 0.95983749778632 0.82567931793035 
C24   C     0.91080350101686 0.50937400158348 0.25732498218936 
C25   C     0.60476567447812 0.74806614470442 0.78778212120190 
C26   C     0.91449010139851 0.33931440854727 0.15017758277099 
C27   C     0.59627265344927 0.59701351233810 0.82281581981523 
C28   C     0.89692530970178 0.30580003837235 0.05018788873204 
C29   C     0.68044774479075 0.34220462091954 0.40486920649073 
C30   C     0.86943863919497 0.95696929276095 0.60653535847019 
C31   C     0.60699740984542 0.33042612933744 0.98356416057065 
C32   C     0.85746275903883 0.38307855464537 0.82591130194979 
C33   C     0.61356278619521 0.57243440570530 0.30937562883260 
C34   C     0.93060155740275 0.90144685576963 0.80481716065001 
C35   C     0.62785305126903 0.22553077249850 0.10164171960807 
C36   C     0.83564422957573 0.49061654631537 0.71018980695262 
C37   C     0.67216969376596 0.15773498697289 0.32086964703867 
C38   C     0.82325320636809 0.75753897854577 0.55721034976719 
C39   C     0.69313889695642 0.19740541735650 0.41535713643735 
C40   C     0.83537862721802 0.90858790731098 0.52093499028766 
C41   C     0.62444007505500 0.59796106013100 0.42333749261036 
C42   C     0.95578858756630 0.05618090511483 0.75405087817946 
C43   C     0.69240981877379 0.37323151243017 0.51492255199385 
C44   C     0.89347512209608 0.11485530089430 0.55891808363144 
C45   C     0.66810910419265 0.49952618834419 0.52139967874985 
C46   C     0.93532218928196 0.16488754684459 0.63159461061276 
C47   C     0.55945384194649 0.66066195252280 0.22782124071510 
C48   C     0.58786902955843 0.71588640905551 0.44265415927738 
C49   C     0.52279285841908 0.77292449675847 0.25060526441771 
C50   C     0.53803609758945 0.80313229023055 0.35761888808693 
H1    H     0.76962793021756 0.07608278328652 0.06802820137255 
H2    H     0.84481948571040 0.90409422111689 0.23975548166537 
H3    H     0.69418505245180 0.12712145143665 0.88349828951908 
H4    H     0.91107821109349 0.67323378219331 0.33163151483267 
H5    H     0.62767670010969 0.03602113493382 0.74401473717699 
H6    H     0.94690759483577 0.43576737647187 0.32797136100376 
H7    H     0.57896963664414 0.82887568452110 0.70372469773626 
H8    H     0.94444019695723 0.26265244924795 0.22994039231434 
H9    H     0.56606980568625 0.55526438677736 0.76429955803641 
H10   H     0.90937341694163 0.19891338638882 0.05129049705767 
H11   H     0.58247863417748 0.29557680208077 0.91570316462608 
H12   H     0.86535460193899 0.27041144475294 0.83747816379095 
H13   H     0.94816653418073 0.82083458493290 0.89845218295685 
H14   H     0.62270933766215 0.10554439248324 0.12827297437926 
H15   H     0.82276634264589 0.46423433201792 0.62958103007420 
H16   H     0.67349369404293 0.04239958734975 0.33523913454080 
H17   H     0.80279684485900 0.72023829617864 0.48789463982808 
H18   H     0.71444144213960 0.11604833027037 0.50507331824011 
H19   H     0.82433381785562 0.99503221133254 0.42252789166454 
H20   H     0.99133716106689 0.09333858865761 0.81025557965367 
H21   H     0.72057484111182 0.29162212742601 0.59493580203625 
H22   H     0.87905573440823 0.19630232754679 0.46173742688371 
H23   H     0.67702308586742 0.52223227652942 0.60594065921366 
H24   H     0.95395035010139 0.28692310901268 0.59286643020827 
H25   H     0.54583435207161 0.63899757101794 0.14559214102692 
H26   H     0.59862225387287 0.73460900020306 0.52847196169395 
H27   H     0.48172491637245 0.83830459682837 0.18513944632348 
H28   H     0.50915581017806 0.89147048476272 0.37592094908492 
