data_stdin
_audit_creation_method 'critic2'
_audit_creation_date 2023-8-11
_chemical_formula_sum 'C50 H28'
_cell_formula_units_Z 4
_cell_length_a        10.8839702881
_cell_length_b        31.1368928111
_cell_length_c         9.9471448570
_cell_angle_alpha        89.9996
_cell_angle_beta       116.7456
_cell_angle_gamma        90.0019
_cell_volume          3010.364226
_space_group_crystal_system monoclinic
_space_group_IT_number 14
_space_group_name_H-M_alt 'P2_1/c'
_space_group_name_Hall '-P 2ybc'
loop_
_symmetry_equiv_pos_site_id
_symmetry_equiv_pos_as_xyz
 1 'x,y,z'
 2 '-x,-y,-z'
 3 '-x,-1/2+y,-1/2-z'
 4 'x,-1/2-y,-1/2+z'
loop_
_atom_site_label
_atom_site_type_symbol
_atom_site_fract_x
_atom_site_fract_y
_atom_site_fract_z
C1    C     0.63790234848312 0.62075376688225 0.33074275344574 
C2    C     0.56234428785096 0.59142876709563 0.20885026097701 
C3    C     0.73147603324926 0.65317486176225 0.32784844602082 
C4    C     0.60906688923145 0.57657644538677 0.10183584684227 
C5    C     0.72015548373279 0.67330365867665 0.19188504231859 
C6    C     0.75134949922941 0.57617602160850 0.12885065890364 
C7    C     0.59490920267991 0.67512610978570 0.05105645273873 
C8    C     0.86981999673166 0.57511999838046 0.27555743119590 
C9    C     0.61790657405983 0.61782753008107 0.46212781978773 
C10   C     0.43755102817159 0.57402801953016 0.19871277964303 
C11   C     0.83531800972898 0.66841579031933 0.46803177516509 
C12   C     0.50843203428380 0.55965002438528 0.96259487740869 
C13   C     0.83878319976538 0.69450800192207 0.19835182492636 
C14   C     0.77700170122549 0.57523175813348 0.00018959884266 
C15   C     0.45605683290080 0.67463384100406 0.03604890123012 
C16   C     0.87076663000994 0.55627191878547 0.40949390053423 
C17   C     0.61023971675214 0.68092914213904 0.91694172100273 
C18   C     0.99773516397313 0.58964072163412 0.28624404759568 
C19   C     0.50064290572437 0.59576880280661 0.45571845056810 
C20   C     0.40803546138664 0.57736028966386 0.32407070995240 
C21   C     0.71472392019340 0.63731823275328 0.59834477096008 
C22   C     0.34547720520639 0.55217119201679 0.06540881341808 
C23   C     0.82563012144059 0.65916764386763 0.60321328895049 
C24   C     0.37613025513306 0.54794792610693 0.94710367175965 
C25   C     0.94454568445531 0.69431752296113 0.47131053130669 
C26   C     0.54205308573113 0.55306945264005 0.84147595966402 
C27   C     0.95038420877595 0.70471184604274 0.34077826086684 
C28   C     0.66980322529727 0.56346195022004 0.85698364763485 
C29   C     0.34667527574111 0.66491721074052 0.89196323516872 
C30   C     0.98865712502482 0.56201078968906 0.55184290002209 
C31   C     0.84419981043480 0.70599002011411 0.06258768974050 
C32   C     0.91023393593232 0.58552680881832 0.01552872267834 
C33   C     0.41797472057503 0.68793758307431 0.15258863312488 
C34   C     0.76533793048729 0.52893530816428 0.40582822189994 
C35   C     0.73738222088433 0.69607998059605 0.92623061900389 
C36   C     0.01433903538973 0.59582230312186 0.15350018251351 
C37   C     0.49617415791029 0.67457015387042 0.77349983050017 
C38   C     0.11267598908441 0.59565281867701 0.43017095382242 
C39   C     0.37027673402750 0.66384874648115 0.76241941361725 
C40   C     0.10679549638328 0.58375143297100 0.55910871618304 
C41   C     0.28043901994871 0.68057620859149 0.13142541355224 
C42   C     0.77056655639718 0.51081231982338 0.53501199956233 
C43   C     0.21017721675331 0.65853662527344 0.87405613225956 
C44   C     0.99021014455112 0.54399173173217 0.68326518379098 
C45   C     0.17901343699014 0.66429641957036 0.99113339006403 
C46   C     0.88280716960195 0.51892492876686 0.67605724784661 
C47   C     0.50593669090012 0.71142450523418 0.28244293918205 
C48   C     0.24338028341590 0.69177674479113 0.24627523688409 
C49   C     0.46655556488839 0.72285278171437 0.39169234331991 
C50   C     0.33524527940796 0.71212550335453 0.37607536716839 
H1    H     0.48380671168844 0.59558647154314 0.55570382625329 
H2    H     0.31304415036862 0.56316837951783 0.31462132018801 
H3    H     0.70095243718628 0.63324797620308 0.69934072920961 
H4    H     0.24969243574798 0.53952543923552 0.05916057544071 
H5    H     0.90408037240477 0.67200170321242 0.70897704001038 
H6    H     0.30345349923011 0.53305167648231 0.84237046962746 
H7    H     0.02483110179968 0.70481179400747 0.57990722013786 
H8    H     0.46301024962314 0.54061509055878 0.73540906477274 
H9    H     0.03722182252753 0.72276681732943 0.34349459225742 
H10   H     0.69405156480559 0.56079093674252 0.76237816831979 
H11   H     0.93598302720289 0.72171284918124 0.06907505185845 
H12   H     0.92570462008854 0.58617894605051 0.91463033312426 
H13   H     0.67862411775010 0.52166880242742 0.29846799880351 
H14   H     0.74423946151841 0.70244367308372 0.82212638068433 
H15   H     0.11420973928675 0.60619404724837 0.16527276863218 
H16   H     0.51100567246492 0.67852899327027 0.67303537882920 
H17   H     0.20601042129757 0.60961093003828 0.43387955645158 
H18   H     0.28346639081908 0.65768954208122 0.65319552083118 
H19   H     0.19490120047898 0.58828156309448 0.66851470667919 
H20   H     0.68718777769685 0.48998341323670 0.52701709864722 
H21   H     0.13128450115303 0.64869956772466 0.76386826715251 
H22   H     0.07986985101258 0.54963997890931 0.79064956039620 
H23   H     0.07511346324514 0.65874779369771 0.97737245651550 
H24   H     0.88700256334067 0.50463988380930 0.77798335540929 
H25   H     0.60648366761173 0.72147522044900 0.29671300907225 
H26   H     0.13941864396913 0.68438512762870 0.22860900135448 
H27   H     0.53751530681505 0.74091910090069 0.48940768956333 
H28   H     0.30584536164142 0.72111133452796 0.46348769166893 
