data_stdin
_audit_creation_method 'critic2'
_audit_creation_date 2023-8-11
_chemical_formula_sum 'C50 H28'
_cell_formula_units_Z 8
_cell_length_a        19.5559410177
_cell_length_b         9.9910986823
_cell_length_c        31.5177424697
_cell_angle_alpha        89.9976
_cell_angle_beta       101.5003
_cell_angle_gamma        90.0009
_cell_volume          6034.473418
_space_group_crystal_system monoclinic
_space_group_IT_number 15
_space_group_name_H-M_alt 'C2/c'
_space_group_name_Hall '-C 2yc'
loop_
_symmetry_equiv_pos_site_id
_symmetry_equiv_pos_as_xyz
 1 'x,y,z'
 2 '-x,-y,-z'
 3 '-x,y,-1/2-z'
 4 'x,-y,-1/2+z'
 5 '-1/2+x,-1/2+y,z'
 6 '-1/2-x,-1/2-y,-z'
 7 '-1/2-x,-1/2+y,-1/2-z'
 8 '-1/2+x,-1/2-y,-1/2+z'
loop_
_atom_site_label
_atom_site_type_symbol
_atom_site_fract_x
_atom_site_fract_y
_atom_site_fract_z
C1    C     0.34911720993894 0.49451687001658 0.62089131010998 
C2    C     0.30233696979085 0.57819809995420 0.59105606004373 
C3    C     0.40647119010148 0.54452553985854 0.65293330984950 
C4    C     0.32121502998814 0.70716275017378 0.57594318994803 
C5    C     0.40799785993616 0.67602230996481 0.67223276987426 
C6    C     0.39192199008088 0.74980468985904 0.57538990992231 
C7    C     0.34673720002179 0.75358363954965 0.67559451983987 
C8    C     0.45067297997391 0.66219965002629 0.57404354993758 
C9    C     0.33830807019194 0.35391322024679 0.61840043988260 
C10   C     0.23475883993195 0.52691513004287 0.57341498014587 
C11   C     0.46354072980539 0.45704348020548 0.66798084008197 
C12   C     0.26572219998370 0.79658213032263 0.55904358009030 
C13   C     0.47463092020978 0.73043545962122 0.69050646007779 
C14   C     0.40418417983183 0.89067271988594 0.57455040010474 
C15   C     0.27811129020486 0.69886174987657 0.67550443991625 
C16   C     0.44545137975600 0.52828118951859 0.55567691002988 
C17   C     0.35531443004382 0.89478149972621 0.68125667007883 
C18   C     0.51896191019576 0.71558069037639 0.58782118995385 
C19   C     0.27296629987938 0.30238653006927 0.59619176013264 
C20   C     0.22113644015186 0.38775869027569 0.57712666995034 
C21   C     0.39321220990649 0.26670363978013 0.63797125993809 
C22   C     0.18218208984155 0.61430369013496 0.55100040988292 
C23   C     0.45570668028961 0.31728616032604 0.65927645014843 
C24   C     0.19617389996764 0.74712881020838 0.54693200992684 
C25   C     0.52707132979994 0.50991780950977 0.69233518998651 
C26   C     0.28019984975762 0.93407245047367 0.55309103002974 
C27   C     0.53379777002501 0.64421628994545 0.70033535994944 
C28   C     0.34707763973735 0.98099940036093 0.56349170991644 
C29   C     0.21983185000129 0.78649190040272 0.66524404013655 
C30   C     0.50651576001232 0.44600739016704 0.56084281997662 
C31   C     0.48106646020462 0.86945743040853 0.70015935015955 
C32   C     0.47358719985191 0.94151934987065 0.58432951999113 
C33   C     0.26490678986494 0.56435113954228 0.68945038003151 
C34   C     0.38378641018180 0.47709882967400 0.52935991989495 
C35   C     0.42352114018903 0.95033050996151 0.69302701991579 
C36   C     0.52900314023757 0.85588664977897 0.59400316998432 
C37   C     0.29582185015176 0.97991231977582 0.67580894008910 
C38   C     0.57854673017145 0.63011512030580 0.59333523009489 
C39   C     0.23013240019451 0.92755697990734 0.66477601996567 
C40   C     0.57241180991697 0.49857015007798 0.58174696990927 
C41   C     0.19488461026043 0.51455903979435 0.68137686014163 
C42   C     0.38081491983827 0.35022069997519 0.51166768014179 
C43   C     0.15051443005054 0.73408245986606 0.65792664002997 
C44   C     0.50189609023419 0.31524497962003 0.54318968000762 
C45   C     0.13841224015699 0.60144581003982 0.66370404995458 
C46   C     0.44004284991619 0.26695690048326 0.51914464006437 
C47   C     0.31703197987029 0.48259201008952 0.71456742987104 
C48   C     0.18176261010088 0.38195825037506 0.69339901001621 
C49   C     0.30236232985415 0.35533484031902 0.72751545998093 
C50   C     0.23447104981759 0.30229222015102 0.71579343007295 
H1    H     0.26449611993472 0.19460057030205 0.59624933001421 
H2    H     0.16946241013922 0.35025223048423 0.56265197999593 
H3    H     0.38533218008149 0.15928957012232 0.63404682997613 
H4    H     0.13054423006570 0.57369524983056 0.53797697992009 
H5    H     0.49943625981048 0.25109149014885 0.67166777987155 
H6    H     0.15537125978831 0.81591694967873 0.53183785002162 
H7    H     0.57068553977270 0.44216006031964 0.70313874991947 
H8    H     0.23678668983869 0.00139492034639 0.54135004008993 
H9    H     0.58335567996151 0.68622096960514 0.71684731988468 
H10   H     0.35826874985795 0.08728219986690 0.56135550000527 
H11   H     0.53261882993915 0.91009337987334 0.71308373996090 
H12   H     0.48107625985717 0.04967522039278 0.58510929993965 
H13   H     0.33759772999663 0.53951640979904 0.52260492989072 
H14   H     0.42851896025505 0.05776044044799 0.69864367009557 
H15   H     0.58200976021511 0.89361566017889 0.60401702010287 
H16   H     0.30370049009912 0.08744601958038 0.67976471005889 
H17   H     0.62941385974603 0.67358351950017 0.60670327985975 
H18   H     0.18449387021198 0.99251945999696 0.65856499998132 
H19   H     0.61810359993837 0.43403598030294 0.58600062005482 
H20   H     0.33217532992011 0.31470293016330 0.49175175988153 
H21   H     0.10734208978627 0.80307319027766 0.64740555997780 
H22   H     0.54888868985008 0.25400240990118 0.54833830001699 
H23   H     0.08544489987776 0.56168579035183 0.65731619009322 
H24   H     0.43772928991009 0.16689403991968 0.50521268985311 
H25   H     0.36965102984218 0.52132168987347 0.72436462014422 
H26   H     0.12839789990972 0.34502899021973 0.68521823005082 
H27   H     0.34342424016124 0.29561194961955 0.74718298985220 
H28   H     0.22363550989259 0.20125196008035 0.72560988009929 
