data_stdin
_audit_creation_method 'critic2'
_audit_creation_date 2023-8-11
_chemical_formula_sum 'C50 H28'
_cell_formula_units_Z 2
_cell_length_a         9.9230712717
_cell_length_b        17.4590977800
_cell_length_c         8.9398602734
_cell_angle_alpha        89.9991
_cell_angle_beta        90.2905
_cell_angle_gamma        90.0011
_cell_volume          1548.791851
_space_group_crystal_system monoclinic
_space_group_IT_number 4
_space_group_name_H-M_alt 'P2_1'
_space_group_name_Hall 'P 2yb'
loop_
_symmetry_equiv_pos_site_id
_symmetry_equiv_pos_as_xyz
 1 'x,y,z'
 2 '-x,-1/2+y,-z'
loop_
_atom_site_label
_atom_site_type_symbol
_atom_site_fract_x
_atom_site_fract_y
_atom_site_fract_z
C1    C     0.75761207440458 0.99825570070244 0.76728646640462 
C2    C     0.81147119514985 0.02352669810936 0.62625423549094 
C3    C     0.83851403444772 0.97967223567238 0.89661610613855 
C4    C     0.94226356334329 0.00132303592233 0.57114900594621 
C5    C     0.96885754866666 0.01317188581115 0.92796597043001 
C6    C     0.01367960948335 0.93386131597729 0.62068288873914 
C7    C     0.01657681762191 0.08456630411739 0.86468047309036 
C8    C     0.95092214976057 0.86621615746820 0.68242546889697 
C9    C     0.61566338936414 0.99107240827335 0.77905172236823 
C10   C     0.72817314483589 0.06930906026653 0.53242250739157 
C11   C     0.78370199670987 0.92771965349347 0.00272765849962 
C12   C     0.00217609289364 0.04717608960691 0.45822062887131 
C13   C     0.05522193498781 0.97344036049878 0.02935893083071 
C14   C     0.15613046277386 0.93230050859178 0.60177618388220 
C15   C     0.93261153771375 0.14679278177002 0.81052601457295 
C16   C     0.81664700200503 0.83991233900891 0.64234877530119 
C17   C     0.15904468309489 0.09525389064474 0.85812515561816 
C18   C     0.03117274670107 0.81774082378500 0.77423146696054 
C19   C     0.53181837562794 0.03020000233354 0.67396400080795 
C20   C     0.58711178022515 0.07326459564684 0.56185463574188 
C21   C     0.56041524243975 0.94511357286571 0.89554208960149 
C22   C     0.78731582307763 0.10889034715868 0.40966250689437 
C23   C     0.64364846703461 0.90967500576728 0.99663612828010 
C24   C     0.92197460772283 0.10198537758191 0.38017945304971 
C25   C     0.86898083209899 0.89504241095377 0.11443890548350 
C26   C     0.14097691702826 0.03707522181291 0.42351367954534 
C27   C     0.00266808634249 0.91371774295548 0.12076592376726 
C28   C     0.21730590442143 0.98472913359130 0.50026742094090 
C29   C     0.99053177437599 0.19909677504283 0.70707062349121 
C30   C     0.76034795798375 0.77570257247852 0.71961920291247 
C31   C     0.19412392924852 0.99348629255942 0.03898865165640 
C32   C     0.23472021093321 0.87819011795167 0.68394215044854 
C33   C     0.79827344551110 0.16427383004611 0.86516031758866 
C34   C     0.74286471210965 0.86942274141623 0.51887311930921 
C35   C     0.24591796847379 0.04900379482674 0.94792232358529 
C36   C     0.17394402199368 0.82702107988122 0.77814249642047 
C37   C     0.21444995237987 0.15223113288024 0.76245346241620 
C38   C     0.96931799075531 0.75693043077539 0.85568368831465 
C39   C     0.13171008458271 0.19832739338516 0.67947103389513 
C40   C     0.83733299198972 0.73801078927659 0.83301117938928 
C41   C     0.72012974127804 0.22234105091839 0.79168565974236 
C42   C     0.61719742411922 0.84120443092650 0.48033114105958 
C43   C     0.90889283623070 0.25532328830398 0.63438152028286 
C44   C     0.63166260473989 0.74780894008744 0.67748400690504 
C45   C     0.77691517435127 0.26493035714850 0.67145502716295 
C46   C     0.55956913957015 0.78030558577524 0.56121413281576 
C47   C     0.74334410987783 0.13170349858683 0.99672909030986 
C48   C     0.58910979961042 0.23965281129966 0.84331094218920 
C49   C     0.61562198148607 0.15051508936692 0.04608820568213 
C50   C     0.53612044075352 0.20402030519191 0.96757008570694 
H1    H     0.42313671460178 0.02791235059703 0.68877883340028 
H2    H     0.52315597347564 0.10823924848930 0.48962337653865 
H3    H     0.45188148896667 0.93608830511451 0.89851610737247 
H4    H     0.72478673659105 0.14740941799372 0.34326318942426 
H5    H     0.60335970569401 0.86954151663210 0.07823417880103 
H6    H     0.96923996334842 0.13665861582065 0.29403192916548 
H7    H     0.82710324292509 0.85250787900777 0.19023865644620 
H8    H     0.18558799053320 0.07376823827239 0.33859401250802 
H9    H     0.07014520572227 0.88485141639040 0.19880604454844 
H10   H     0.32541535870430 0.98043533382961 0.48133775258024 
H11   H     0.25856059597751 0.96132598421019 0.11552290018099 
H12   H     0.34408821278665 0.87967602603831 0.67366011515005 
H13   H     0.78678643179783 0.91414071608376 0.45044381859247 
H14   H     0.35367420662130 0.06095709183179 0.94627720203602 
H15   H     0.23354225924537 0.78906030526569 0.84914797629780 
H16   H     0.32362702753678 0.15662393512807 0.75331338527001 
H17   H     0.03067209038695 0.72525215287346 0.93565280631134 
H18   H     0.17280581969458 0.23826059688826 0.59816619888568 
H19   H     0.79218636941592 0.69111079862477 0.89563234924012 
H20   H     0.56377601827653 0.86625443793905 0.38542857866799 
H21   H     0.95495676388555 0.29083915356466 0.54866223720287 
H22   H     0.59119716015495 0.69872660247886 0.73753819106373 
H23   H     0.71590655896288 0.30801953054871 0.61469503649625 
H24   H     0.46091574462656 0.75782048542447 0.53031488387610 
H25   H     0.80303478117384 0.09172600776185 0.06223545932772 
H26   H     0.53077500289934 0.28271490272208 0.78314179358145 
H27   H     0.57710509690554 0.12322001815421 0.14676451282606 
H28   H     0.43553952136492 0.21882946297960 0.00596770526342 
