data_stdin
_audit_creation_method 'critic2'
_audit_creation_date 2023-8-11
_chemical_formula_sum 'C50 H28'
_cell_formula_units_Z 4
_cell_length_a        19.5778156997
_cell_length_b         9.9556250705
_cell_length_c        17.7412581222
_cell_angle_alpha        89.9995
_cell_angle_beta        62.1913
_cell_angle_gamma        89.9995
_cell_volume          3058.581619
_space_group_crystal_system monoclinic
_space_group_IT_number 5
_space_group_name_H-M_alt 'C2'
_space_group_name_Hall 'C 2y'
loop_
_symmetry_equiv_pos_site_id
_symmetry_equiv_pos_as_xyz
 1 'x,y,z'
 2 '-1/2-x,-1/2+y,-z'
 3 '-1/2+x,-1/2+y,z'
 4 '-x,y,-z'
loop_
_atom_site_label
_atom_site_type_symbol
_atom_site_fract_x
_atom_site_fract_y
_atom_site_fract_z
C1    C     0.49602267674311 0.00073675761893 0.74551496679512 
C2    C     0.51647738348884 0.05125943606555 0.80839474024938 
C3    C     0.48263587356674 0.08428992835916 0.68731839540200 
C4    C     0.49542746493366 0.18314823824539 0.84648341971871 
C5    C     0.51864064179642 0.21361070785291 0.65666262553150 
C6    C     0.43029570302997 0.26067825915386 0.85299774461298 
C7    C     0.58991534601874 0.25693766435513 0.65515670077737 
C8    C     0.36189380023663 0.20553774277761 0.85280797874514 
C9    C     0.48868254995654 0.85951485106072 0.74041263876615 
C10   C     0.55646370545567 0.96387116190913 0.83785274225404 
C11   C     0.43442507440049 0.03228048915741 0.65417155846514 
C12   C     0.54072642487684 0.23810010513766 0.88258180226657 
C13   C     0.48277685062533 0.30239313854829 0.62276976836440 
C14   C     0.43216710949735 0.40240371956105 0.86407212290026 
C15   C     0.65002013858259 0.16922370049230 0.65271727161876 
C16   C     0.33260059134395 0.07068967713200 0.88061391939291 
C17   C     0.60356158140728 0.39812147540981 0.65238760884094 
C18   C     0.31558315235836 0.29316131801738 0.83231203762514 
C19   C     0.52181554429020 0.77244913350637 0.77818975330062 
C20   C     0.55943943993550 0.82371713367450 0.82024810055091 
C21   C     0.44839356974670 0.80712291187958 0.69757024142773 
C22   C     0.59154121037151 0.01720847480473 0.88603452739761 
C23   C     0.41709907642332 0.89236250414938 0.66148964414837 
C24   C     0.58860434789362 0.15194252068254 0.90200431074517 
C25   C     0.40611701461687 0.11967427568596 0.61151035529420 
C26   C     0.53568756760708 0.37757544902595 0.90177327163405 
C27   C     0.42584192760061 0.25255730343948 0.60125985352542 
C28   C     0.48636778447375 0.45846703617027 0.88766742206520 
C29   C     0.70236251410253 0.22285538921022 0.67971389993979 
C30   C     0.27185181857976 0.02050119245829 0.86500099224631 
C31   C     0.50541544509866 0.43979048749017 0.60829042559337 
C32   C     0.37927345917293 0.48762382628687 0.85271462834044 
C33   C     0.66604723548823 0.03533588829745 0.61585296091320 
C34   C     0.35579461031844 0.98903121998439 0.93013791960754 
C35   C     0.56034359163473 0.48780688759457 0.62841068698567 
C36   C     0.32657191241029 0.43476065243599 0.83081001317365 
C37   C     0.66104016357425 0.44932470196286 0.67248644135549 
C38   C     0.25467699447810 0.24032657086546 0.81819497750960 
C39   C     0.70475325671625 0.36361961637649 0.69238179593166 
C40   C     0.23578663521322 0.10730255367674 0.83006073390072 
C41   C     0.72083854518431 0.95201955606618 0.62601447469451 
C42   C     0.32614157357403 0.86146509181806 0.95600860611387 
C43   C     0.75627349602368 0.13705816334510 0.68927433431781 
C44   C     0.24481179809514 0.88757029695544 0.88905532179694 
C45   C     0.76324637675528 0.00489925576607 0.66643532169879 
C46   C     0.27169527767748 0.80799169256609 0.93323420287704 
C47   C     0.63565809496509 0.98596326389077 0.56270997281632 
C48   C     0.73577265553077 0.82047702288743 0.59162515404598 
C49   C     0.65282050263316 0.85856604365455 0.52786544608338 
C50   C     0.70181025941160 0.77307616267653 0.54396193586586 
H1    H     0.51914070007217 0.66463065275312 0.76996544636679 
H2    H     0.58925741578713 0.75769064417771 0.84431881738706 
H3    H     0.44051282457119 0.69882049902789 0.69737056327261 
H4    H     0.62265851158881 0.94944324187560 0.90743497206105 
H5    H     0.38162954016902 0.85414893098116 0.63384219609776 
H6    H     0.61866654282641 0.19432753226298 0.93488196626649 
H7    H     0.36717604997691 0.07875031075811 0.58917014890460 
H8    H     0.57218675186712 0.41851147102358 0.92728893434658 
H9    H     0.40240231836089 0.32103013415673 0.57130147629839 
H10   H     0.48465438127783 0.56628011270902 0.89877777455006 
H11   H     0.47616839650986 0.50621497232196 0.58369079969083 
H12   H     0.38265679831000 0.59561393195864 0.86018930998524 
H13   H     0.39714915015321 0.02817316167185 0.94921655961216 
H14   H     0.57465379156733 0.59427413453487 0.62266447771570 
H15   H     0.28834386884669 0.49975234488608 0.81810730857692 
H16   H     0.66797308876942 0.55782466313574 0.67337607216490 
H17   H     0.22370321794079 0.30930900787884 0.79731083695008 
H18   H     0.74598061388328 0.40177323400981 0.71225276381222 
H19   H     0.19018313607091 0.06715664383489 0.81768102275719 
H20   H     0.34457599392683 0.80195967388862 0.99479855772725 
H21   H     0.79186832900643 0.18021205883766 0.71548773928557 
H22   H     0.20083790972529 0.85034502002325 0.87315941006365 
H23   H     0.80386732004363 0.93985884006804 0.67485713047567 
H24   H     0.24951304272765 0.70669715311684 0.95287566343532 
H25   H     0.59853976051542 0.05018070538798 0.54829336135508 
H26   H     0.77615581749119 0.75788529119998 0.60217969451635 
H27   H     0.62820287067342 0.82409467419899 0.48749289002350 
H28   H     0.71464494452225 0.67251716029899 0.51685626445710 
