data_stdin
_audit_creation_method 'critic2'
_audit_creation_date 2023-8-11
_chemical_formula_sum 'C50 H28'
_cell_formula_units_Z 2
_cell_length_a         9.9221938846
_cell_length_b        17.4639848000
_cell_length_c         8.9380773151
_cell_angle_alpha        89.9990
_cell_angle_beta        90.2768
_cell_angle_gamma        90.0011
_cell_volume          1548.781286
_space_group_crystal_system monoclinic
_space_group_IT_number 4
_space_group_name_H-M_alt 'P2_1'
_space_group_name_Hall 'P 2yb'
loop_
_symmetry_equiv_pos_site_id
_symmetry_equiv_pos_as_xyz
 1 'x,y,z'
 2 '-x,-1/2+y,-z'
loop_
_atom_site_label
_atom_site_type_symbol
_atom_site_fract_x
_atom_site_fract_y
_atom_site_fract_z
C1    C     0.24232130266151 0.00161433439805 0.23269309309620 
C2    C     0.16145253876848 0.98302396416286 0.10333652074381 
C3    C     0.18839496638890 0.02687116515303 0.37373893970057 
C4    C     0.03109870560635 0.01650925812636 0.07197065857566 
C5    C     0.05757783843370 0.00465076985541 0.42881892512933 
C6    C     0.98334095783676 0.08788498369154 0.13526249911002 
C7    C     0.98622707961427 0.93718742973288 0.37926674073823 
C8    C     0.06728026333188 0.15009958966327 0.18944049428315 
C9    C     0.38428698802330 0.99444752455222 0.22094460800675 
C10   C     0.21630748656776 0.93107325321384 0.99723512869066 
C11   C     0.27163536837418 0.07265962579005 0.46759917240488 
C12   C     0.94476240854227 0.97677913443227 0.97056171118676 
C13   C     0.99757491145162 0.05049216587628 0.54172653904076 
C14   C     0.84085792684331 0.09856446021987 0.14179544459845 
C15   C     0.04906456611670 0.86956914028339 0.31755077446340 
C16   C     0.20163672551171 0.16758833330436 0.13479879177098 
C17   C     0.84375588789599 0.93559767765882 0.39813735767922 
C18   C     0.00931072804677 0.20238921048536 0.29290467224640 
C19   C     0.43958189845607 0.94848494162127 0.10446165498953 
C20   C     0.35637611673387 0.91303557086281 0.00336339253041 
C21   C     0.46808056853611 0.03358694200199 0.32605816889266 
C22   C     0.13104940167404 0.89838859706246 0.88551765724942 
C23   C     0.41271865144385 0.07663648834249 0.43817371021109 
C24   C     0.99735264130034 0.91706194019420 0.87916922270331 
C25   C     0.21240073775212 0.11223267886123 0.59034738443410 
C26   C     0.80584800920916 0.99681843588854 0.96090474533508 
C27   C     0.07771580158255 0.10531202658764 0.61978515993293 
C28   C     0.75401390334424 0.05232405412769 0.05196657163618 
C29   C     0.96887946661250 0.82108298554074 0.22571963842914 
C30   C     0.27975586685599 0.22564533552551 0.20828437877393 
C31   C     0.85875118370954 0.04036709389218 0.57639678137274 
C32   C     0.78540390087040 0.15552619595002 0.23747219808315 
C33   C     0.18334252936644 0.84329661494487 0.35769939324514 
C34   C     0.25659213320260 0.13503874703549 0.00318923379428 
C35   C     0.78249251927977 0.98800655752864 0.49963295527929 
C36   C     0.86810946869596 0.20161509282439 0.32048139553285 
C37   C     0.76523316916467 0.88147901912716 0.31595057240765 
C38   C     0.09092671992697 0.25860605806048 0.36560917457386 
C39   C     0.82609258381718 0.83033179785033 0.22176322407671 
C40   C     0.22292385518337 0.26821756289186 0.32853831399314 
C41   C     0.23971698807388 0.77909883236718 0.28047988981706 
C42   C     0.38431495516096 0.15386909136868 0.95378665061550 
C43   C     0.03081747761160 0.76028984156603 0.14430161970870 
C44   C     0.41078515842422 0.24297120811570 0.15662529039559 
C45   C     0.16280694853330 0.74139470461589 0.16704799872986 
C46   C     0.46379351483701 0.20736764342373 0.03231334360517 
C47   C     0.25704441764037 0.87282564913491 0.48121858729323 
C48   C     0.36838729269575 0.75122392081317 0.32272220408177 
C49   C     0.38269628536374 0.84462581874605 0.51987003144588 
C50   C     0.44038995270408 0.78372767343381 0.43904983030756 
H1    H     0.54812601896215 0.93946030301230 0.10150361037885 
H2    H     0.39669737981482 0.87289238464265 0.92179496687306 
H3    H     0.57677879035046 0.03132196337821 0.31125561697932 
H4    H     0.17295003030686 0.85585307234398 0.80972869448021 
H5    H     0.47663874882793 0.11161738648558 0.51041495318358 
H6    H     0.92989281781753 0.88819391057476 0.80112214917252 
H7    H     0.27487724131143 0.15076155038579 0.65676647379285 
H8    H     0.74143538917595 0.96466487764877 0.88434762419283 
H9    H     0.03037998663708 0.13998424704694 0.70590589135934 
H10   H     0.64624771026583 0.06427724838072 0.05358530894104 
H11   H     0.81406851285366 0.07704920342419 0.66130282746992 
H12   H     0.67621302991557 0.15991664135324 0.24659397967547 
H13   H     0.19691067483153 0.09506751384768 0.93768256277412 
H14   H     0.67436901918231 0.98368639837749 0.51854049508180 
H15   H     0.82697091416050 0.24153978050422 0.40178682752300 
H16   H     0.65584974764813 0.88294020417135 0.32620436678873 
H17   H     0.04483010066275 0.29411106691481 0.45134196904609 
H18   H     0.76654749702455 0.79236038863355 0.15074416659663 
H19   H     0.28390581866369 0.31130107703519 0.38531682253105 
H20   H     0.42284728300964 0.12660453415893 0.85306263465651 
H21   H     0.96951831541141 0.72860015259595 0.06430918732849 
H22   H     0.46910899284029 0.28602250049116 0.21680124820810 
H23   H     0.20800603850146 0.69450340996637 0.10445515008267 
H24   H     0.56437485453110 0.22219375111194 0.99387943190579 
H25   H     0.21306308615126 0.91754216015579 0.54960193322391 
H26   H     0.40891161457988 0.70214756663818 0.26271508255838 
H27   H     0.43604994081477 0.86968198397066 0.61481091206514 
H28   H     0.53902065586818 0.76124651104445 0.47004677892117 
