data_stdin
_audit_creation_method 'critic2'
_audit_creation_date 2023-8-11
_chemical_formula_sum 'C50 H28'
_cell_formula_units_Z 8
_cell_length_a         9.9410047765
_cell_length_b        19.5605146578
_cell_length_c        32.0884661434
_cell_angle_alpha        89.9906
_cell_angle_beta       102.0435
_cell_angle_gamma        89.9985
_cell_volume          6102.301384
_space_group_crystal_system triclinic
_space_group_IT_number 2
_space_group_name_H-M_alt 'P-1'
_space_group_name_Hall '-P 1'
loop_
_symmetry_equiv_pos_site_id
_symmetry_equiv_pos_as_xyz
 1 'x,y,z'
 2 '-x,-y,-z'
 3 '-1/2+x,-1/2+y,z'
 4 '-1/2-x,-1/2-y,-z'
loop_
_atom_site_label
_atom_site_type_symbol
_atom_site_fract_x
_atom_site_fract_y
_atom_site_fract_z
C1    C     0.17640051964915 0.93921108008055 0.38097764008681 
C2    C     0.82360248048649 0.93914982023783 0.11902127003537 
C3    C     0.10571493031722 0.89215552003342 0.34921282000960 
C4    C     0.89429361956834 0.89207546995466 0.15078522997672 
C5    C     0.11149029035529 0.97647554990047 0.41017691000008 
C6    C     0.88850047954517 0.97643499983351 0.08982013992513 
C7    C     0.96172957047456 0.89731327998335 0.32905848007300 
C8    C     0.03827518978074 0.89721888011682 0.17094349001579 
C9    C     0.99167827966625 0.95281146002752 0.42495613006610 
C10   C     0.00831899956337 0.95277835024271 0.07504311001984 
C11   C     0.88128522015266 0.95962441011403 0.32621038994766 
C12   C     0.11871666027985 0.95952827001306 0.17379730003592 
C13   C     0.94868100959452 0.88201377976684 0.42525734001911 
C14   C     0.05132086967396 0.88197906007737 0.07474553991603 
C15   C     0.93537430000208 0.02857248014905 0.32709860996916 
C16   C     0.06461861042165 0.02847743986924 0.17290346993359 
C17   C     0.31948356994809 0.94945959009216 0.38360106000262 
C18   C     0.68052576953746 0.94939804997876 0.11639816003625 
C19   C     0.18495264038445 0.83996975007969 0.33485764007434 
C20   C     0.81505373970488 0.83987761012358 0.16513408009839 
C21   C     0.17447990028274 0.03844529017144 0.42755423996700 
C22   C     0.82550061988540 0.03841000007519 0.07244361996869 
C23   C     0.89596904003043 0.83751143016657 0.30906017999697 
C24   C     0.10403502972180 0.83740222984269 0.19093776984957 
C25   C     0.91337741994124 0.00276530011439 0.44184192997509 
C26   C     0.08661622994581 0.00273901023286 0.05815841998809 
C27   C     0.73542646007844 0.95217731005423 0.31974462991334 
C28   C     0.26457902034132 0.95207817017352 0.18027166997974 
C29   C     0.03717814045129 0.82270426025222 0.42645674998421 
C30   C     0.96283220997254 0.82267036013224 0.07354599989846 
C31   C     0.06256819038772 0.04755811983982 0.31444715997094 
C32   C     0.93741684016799 0.04745948990030 0.18555021998064 
C33   C     0.80762011989203 0.86964761006208 0.42609942005356 
C34   C     0.19238491959022 0.86961518024000 0.07390711004302 
C35   C     0.85164378008112 0.08279707017197 0.33690154990042 
C36   C     0.14835046004162 0.08270507995690 0.16310193013204 
C37   C     0.39518722976234 0.90110402001891 0.36449688006632 
C38   C     0.60481897976154 0.90103211977692 0.13549898989084 
C39   C     0.33113944965966 0.84518640015511 0.34371447997259 
C40   C     0.66886839943662 0.84509807007242 0.15627667986449 
C41   C     0.38531518018113 0.00790201001223 0.40529451996714 
C42   C     0.61467828055521 0.00785352982494 0.09470619010310 
C43   C     0.11730653020126 0.78432844976703 0.31057873012016 
C44   C     0.88270298954550 0.78421460974673 0.18940546005185 
C45   C     0.31169669981787 0.05353974978946 0.42391083013663 
C46   C     0.68827702976020 0.05350398976067 0.07608875008324 
C47   C     0.97697048954885 0.78102363980417 0.30079608995013 
C48   C     0.02303725960202 0.78090334023419 0.19919085997081 
C49   C     0.10163642019673 0.08375059004224 0.44966385015942 
C50   C     0.89834772041917 0.08372847013766 0.05033633003073 
C51   C     0.74989099022440 0.83495796010880 0.29651187008080 
C52   C     0.25011157027565 0.83484208017708 0.20349370993082 
C53   C     0.97108677995661 0.06835019025430 0.45383163011056 
C54   C     0.02890076006377 0.06833286012840 0.04617046004272 
C55   C     0.67206400010681 0.88886255016298 0.30486986989103 
C56   C     0.32794183016641 0.88875509022385 0.19514687999831 
C57   C     0.97391091029607 0.75907357008238 0.41264644994558 
C58   C     0.02610695998478 0.75903247999459 0.08735524985640 
C59   C     0.11419020002763 0.11571635007817 0.32226440005351 
C60   C     0.88579835000685 0.11562349981340 0.17773298988568 
C61   C     0.77948130973124 0.98637302021318 0.44798610012278 
C62   C     0.22051167954515 0.98634950003484 0.05201234996514 
C63   C     0.65209891000759 0.00889559980059 0.32594035993116 
C64   C     0.34790450976116 0.00879849010705 0.17407578984073 
C65   C     0.18374917960865 0.82160177004482 0.44482571986953 
C66   C     0.81625985984327 0.82157463009017 0.05517828988109 
C67   C     0.13341300022243 0.00417290001357 0.29095013002395 
C68   C     0.86656298040662 0.00406506013104 0.20904506005205 
C69   C     0.72488719970264 0.92303185008817 0.43753317987548 
C70   C     0.27510951001466 0.92300366001719 0.06246924008695 
C71   C     0.71051982961892 0.07121149023360 0.33730307000053 
C72   C     0.28947854984407 0.07111814977344 0.16270594988400 
C73   C     0.74940904027925 0.80362147000274 0.41611510006938 
C74   C     0.25060607987900 0.80358552976766 0.08389114987089 
C75   C     0.90611174047359 0.15032398982860 0.34423399005272 
C76   C     0.09388416967732 0.15023716981255 0.15576853991335 
C77   C     0.82868273955298 0.75131532012352 0.40639882999436 
C78   C     0.17133457980870 0.75127101983273 0.09360208990023 
C79   C     0.03525945997443 0.16571816003850 0.33897124999714 
C80   C     0.96473558038765 0.16563274985047 0.16102956006158 
C81   C     0.26249293022233 0.76192971024017 0.43995507997815 
C82   C     0.73752324021216 0.76190212989835 0.06005374015053 
C83   C     0.25337759996320 0.02431273981367 0.27914863998757 
C84   C     0.74659759992610 0.02420458002989 0.22084555988821 
C85   C     0.05571111037262 0.70104682002941 0.40733829007522 
C86   C     0.94431403999431 0.70100379981351 0.09266783013499 
C87   C     0.23953280022684 0.13453172005307 0.31109227996962 
C88   C     0.76045461052341 0.13443874012330 0.18890352013690 
C89   C     0.19554170001154 0.70297974024964 0.41918602997761 
C90   C     0.80448339995035 0.70294365999168 0.08082562012436 
C91   C     0.30943524050780 0.08951333023832 0.29016289014137 
C92   C     0.69054807966110 0.08941379019203 0.20983321000676 
C93   C     0.25285466988739 0.87459182987208 0.47085292008225 
C94   C     0.74714863012440 0.87457251978027 0.02914685996282 
C95   C     0.40532793011353 0.76034293019051 0.45773138004857 
C96   C     0.59468832017706 0.76032131992440 0.04227765990411 
C97   C     0.39176582960060 0.87133488014052 0.48867240015071 
C98   C     0.60823800976310 0.87132062980996 0.01132591011618 
C99   C     0.47002698982537 0.81420175990319 0.48158370990243 
C100  C     0.52998276981526 0.81418640982612 0.01841906009782 
H1    H     0.50558130976437 0.90822127989679 0.36820522014657 
H2    H     0.49442445039471 0.90815080006224 0.13179086991601 
H3    H     0.38988365997309 0.80562855990239 0.33155490996404 
H4    H     0.61011885959103 0.80552965989432 0.16842833988627 
H5    H     0.49350337038840 0.01663475003400 0.40522518997974 
H6    H     0.50650547963447 0.01650777004071 0.09479884001242 
H7    H     0.17956639952137 0.74399411986069 0.30074104995840 
H8    H     0.82043047044193 0.74387195019739 0.19923216013186 
H9    H     0.35844963058047 0.10074259006359 0.43802002012349 
H10   H     0.64154733030962 0.10071965989059 0.06197888993283 
H11   H     0.92465857983776 0.73686720010848 0.28421237004425 
H12   H     0.07535355038968 0.73673199992279 0.21576714013338 
H13   H     0.15116909961049 0.13118373012929 0.46245496985239 
H14   H     0.84881718033535 0.13117090018195 0.03754590015482 
H15   H     0.70171821960525 0.78864603975717 0.28142870999229 
H16   H     0.29827920957014 0.78851759990566 0.21857329010066 
H17   H     0.91212173024584 0.10414583021937 0.46884223007365 
H18   H     0.08787536956090 0.10413698013883 0.03116473005724 
H19   H     0.56013417995452 0.88587320009786 0.29803677015789 
H20   H     0.43987243971050 0.88576086017428 0.20198541992622 
H21   H     0.72037737962094 0.02586938989058 0.45998617993272 
H22   H     0.27961037956953 0.02584663000297 0.04000707000536 
H23   H     0.54155027999987 0.00146603013046 0.32190412007628 
H24   H     0.45845560021211 0.00136870987230 0.17811636013277 
H25   H     0.09177159056298 0.95412822983604 0.28109301011991 
H26   H     0.90819016954512 0.95401135018558 0.21890126996194 
H27   H     0.61972772029346 0.91112268020644 0.43988281992208 
H28   H     0.38026492017285 0.91109071986105 0.06011692013557 
H29   H     0.64833751989132 0.11413889988027 0.34392751003250 
H30   H     0.35166013043462 0.11404724006289 0.15608108990174 
H31   H     0.64020459988556 0.79651197011578 0.41542195000910 
H32   H     0.35981293983835 0.79647722975928 0.08458691010994 
H33   H     0.84157980993836 0.18932396015104 0.35433050009086 
H34   H     0.15842278005230 0.18923991014266 0.14567477992993 
H35   H     0.78382284022157 0.70164294982834 0.39646313004186 
H36   H     0.21619397050308 0.70159095994428 0.10353289012256 
H37   H     0.07706913040394 0.21710826984653 0.34514182988641 
H38   H     0.92292849994931 0.21702820992745 0.15486225002805 
H39   H     0.30337134034003 0.98948571013244 0.26075430987750 
H40   H     0.69660025048681 0.98937078977591 0.23923933013994 
H41   H     0.00279243981578 0.65467627017567 0.39401729013043 
H42   H     0.99724139970376 0.65462861986808 0.10599090986351 
H43   H     0.27830891043360 0.18602687000741 0.31886110015086 
H44   H     0.72168257987523 0.18593883011938 0.18113293994037 
H45   H     0.25730667975775 0.65845519988922 0.41522082010722 
H46   H     0.74272205020667 0.65842031990155 0.08479689007536 
H47   H     0.40518509967346 0.10455858993983 0.28125887003088 
H48   H     0.59480152969525 0.10446048019218 0.21873806988904 
H49   H     0.19508792992511 0.91889739996578 0.47729978989958 
H50   H     0.80490838011130 0.91888009013926 0.02269554996996 
H51   H     0.46301071039311 0.71480931023777 0.45278823000425 
H52   H     0.53701842025689 0.71478541980361 0.04722700985202 
H53   H     0.44069802035018 0.91343068994441 0.50838045989407 
H54   H     0.55930826987344 0.91342245017287 0.99161249003522 
H55   H     0.57955376959861 0.81161851983771 0.49563413996568 
H56   H     0.42045777965369 0.81160690002008 0.00436662013113 
