data_stdin
_audit_creation_method 'critic2'
_audit_creation_date 2023-8-11
_chemical_formula_sum 'C50 H28'
_cell_formula_units_Z 8
_cell_length_a        19.5329178934
_cell_length_b         9.9240465803
_cell_length_c        32.2903577362
_cell_angle_alpha        89.9997
_cell_angle_beta        74.8928
_cell_angle_gamma        89.9999
_cell_volume          6043.020194
_space_group_crystal_system monoclinic
_space_group_IT_number 15
_space_group_name_H-M_alt 'C2/c'
_space_group_name_Hall '-C 2yc'
loop_
_symmetry_equiv_pos_site_id
_symmetry_equiv_pos_as_xyz
 1 'x,y,z'
 2 '-x,-y,-z'
 3 '-1/2-x,-1/2+y,-1/2-z'
 4 '-1/2+x,-1/2-y,-1/2+z'
 5 '-1/2+x,-1/2+y,z'
 6 '-1/2-x,-1/2-y,-z'
 7 '-x,y,-1/2-z'
 8 'x,-y,-1/2+z'
loop_
_atom_site_label
_atom_site_type_symbol
_atom_site_fract_x
_atom_site_fract_y
_atom_site_fract_z
C1    C     0.44496659709605 0.18545067238196 0.87707953874066 
C2    C     0.41234982036776 0.23529874926940 0.84478464782723 
C3    C     0.47034245475698 0.26992395168009 0.90623342861087 
C4    C     0.42816853629240 0.36459486802409 0.82387228821073 
C5    C     0.44138910354177 0.40099738464491 0.92068401305789 
C6    C     0.49229376321128 0.44181165896469 0.82129680780718 
C7    C     0.37068059704802 0.44528872994961 0.92091205746957 
C8    C     0.56073175820605 0.38796609443409 0.82296392315718 
C9    C     0.45335301965754 0.04379019027486 0.87991883943988 
C10   C     0.36578211470314 0.14727710950662 0.83038021098461 
C11   C     0.52470981723143 0.21780761865435 0.92370426889947 
C12   C     0.37828666036338 0.41734289494675 0.80273608353233 
C13   C     0.48450737094676 0.49054479697654 0.93740960682490 
C14   C     0.48829027254240 0.58345809712922 0.81437108629459 
C15   C     0.31073670764490 0.35763508854294 0.92279480870365 
C16   C     0.58533615592178 0.25112669779163 0.81132959480244 
C17   C     0.35824013207567 0.58695238087323 0.92130987938020 
C18   C     0.61096435548490 0.47914195365677 0.83240464084936 
C19   C     0.41320236677287 0.95574003775261 0.86046216000911 
C20   C     0.36656108033985 0.00679676047286 0.83942612074284 
C21   C     0.50226244346655 0.99180294422304 0.90181107478865 
C22   C     0.32227235529651 0.19860461018043 0.80485503663696 
C23   C     0.54044396246677 0.07741784885884 0.92038858550462 
C24   C     0.32536336141402 0.33169697585108 0.79380128629333 
C25   C     0.56140308771263 0.30579256424402 0.94541748281645 
C26   C     0.38209108717673 0.55484626898396 0.78984987839297 
C27   C     0.54490042989002 0.43988953564804 0.94938887530576 
C28   C     0.43207566048257 0.63765535228306 0.79892650260680 
C29   C     0.25306006008416 0.41001377699198 0.90859103237583 
C30   C     0.65104407080981 0.20645837280012 0.81852745550813 
C31   C     0.46555077660608 0.62900150553012 0.94368997079700 
C32   C     0.54187933289654 0.67118869104609 0.82116849461344 
C33   C     0.30218612305297 0.22483091736877 0.94225943290839 
C34   C     0.55129204444821 0.16133505706862 0.78908544936541 
C35   C     0.40672906909204 0.67708214291070 0.93308349687123 
C36   C     0.59917087091047 0.62077794317444 0.83284164672037 
C37   C     0.29645808899986 0.63769257557773 0.91102455753048 
C38   C     0.67586170014404 0.43090410934219 0.83951941488268 
C39   C     0.24818456458844 0.55096939057976 0.90162729033658 
C40   C     0.69430839748773 0.29834259971332 0.83438708700180 
C41   C     0.24610525656401 0.13956552521772 0.93679804877664 
C42   C     0.57689910952326 0.03319583929493 0.77749164581866 
C43   C     0.19745478501597 0.32278015009686 0.90385055524198 
C44   C     0.67511977903404 0.07329907390199 0.80764905664434 
C45   C     0.19565709820412 0.19060850440551 0.91578120061119 
C46   C     0.63851489280971 0.98661352114271 0.78772997537187 
C47   C     0.34260515704728 0.17880715207357 0.97003866461665 
C48   C     0.23848875301160 0.00833074160814 0.95464440181134 
C49   C     0.33322358782425 0.05142608998575 0.98785667711765 
C50   C     0.28194829152865 0.96365273324371 0.97933334324431 
H1    H     0.41858596825040 0.84749832968217 0.86393252137284 
H2    H     0.33248261127809 0.94018981575928 0.82683289780583 
H3    H     0.51052461460650 0.88328499264201 0.90186876948279 
H4    H     0.28700159782766 0.12990460799472 0.79410317567658 
H5    H     0.58121799444137 0.03904317229617 0.93474153373868 
H6    H     0.29082507805246 0.37245027510913 0.77529828051689 
H7    H     0.60358767527674 0.26453656368066 0.95805253130300 
H8    H     0.34359204071995 0.59285620622918 0.77364929912979 
H9    H     0.57457179685880 0.50868736698991 0.96443331490061 
H10   H     0.43259106523469 0.74517610340451 0.79204135499146 
H11   H     0.49961332588393 0.69566628655796 0.95629607887465 
H12   H     0.53577062023697 0.77923652411592 0.81744234554550 
H13   H     0.50442219214968 0.19494479512239 0.78014291258587 
H14   H     0.39383255271196 0.78402571573998 0.93561717537930 
H15   H     0.63906308654957 0.68751634783164 0.83978066574223 
H16   H     0.28952739448025 0.74654285875465 0.90999808635002 
H17   H     0.71046227273602 0.50360221569089 0.84919587691954 
H18   H     0.20262610101887 0.58867832230086 0.89164830013543 
H19   H     0.74364949596454 0.26188996259091 0.84015234615707 
H20   H     0.54961765535161 0.96877901922001 0.75964907828313 
H21   H     0.15636238765335 0.36485743717631 0.89039975852766 
H22   H     0.72410911325671 0.04136969772264 0.81482241918979 
H23   H     0.15362968573022 0.12422419558430 0.91155033804889 
H24   H     0.65796633969342 0.88482285856224 0.77908395063741 
H25   H     0.38069010404097 0.24606995859098 0.97839723789923 
H26   H     0.19639852751657 0.94413306483235 0.94924302651481 
H27   H     0.36512484714022 0.02002585577462 0.00919230071236 
H28   H     0.27489230631385 0.86347260779617 0.99353873677993 
