data_stdin
_audit_creation_method 'critic2'
_audit_creation_date 2023-8-11
_chemical_formula_sum 'C50 H28'
_cell_formula_units_Z 4
_cell_length_a        19.5772405338
_cell_length_b         9.9794395404
_cell_length_c        16.2958126096
_cell_angle_alpha        89.9995
_cell_angle_beta        70.7925
_cell_angle_gamma        89.9998
_cell_volume          3006.484174
_space_group_crystal_system monoclinic
_space_group_IT_number 9
_space_group_name_H-M_alt 'Cc'
_space_group_name_Hall 'C -2yc'
loop_
_symmetry_equiv_pos_site_id
_symmetry_equiv_pos_as_xyz
 1 'x,y,z'
 2 'x,-y,-1/2+z'
 3 '-1/2+x,-1/2+y,z'
 4 '-1/2+x,-1/2-y,-1/2+z'
loop_
_atom_site_label
_atom_site_type_symbol
_atom_site_fract_x
_atom_site_fract_y
_atom_site_fract_z
C1    C     0.00305803845299 0.23403821468278 0.00074709782338 
C2    C     0.97302545741971 0.28336979291164 0.93675503751279 
C3    C     0.02336098764283 0.31819131343123 0.06079439877504 
C4    C     0.98791935881879 0.41448565089888 0.89722555389376 
C5    C     0.99065856595090 0.44674044134430 0.09129966100628 
C6    C     0.05168095497833 0.49353520706797 0.89018017945225 
C7    C     0.91954884610817 0.48911632228182 0.09178493842037 
C8    C     0.12022667093557 0.43984361876197 0.89058733098834 
C9    C     0.01209087344607 0.09335930382907 0.00580923708278 
C10   C     0.92838784667423 0.19515704233302 0.90812760966643 
C11   C     0.07530579057135 0.26729413731854 0.09680212195184 
C12   C     0.93728837958676 0.46751847777965 0.86006253159391 
C13   C     0.03082302004798 0.53635901013702 0.12614334990957 
C14   C     0.04755941493449 0.63465237792208 0.87829603742733 
C15   C     0.85937207951612 0.40186212058124 0.09420303100425 
C16   C     0.14600757335831 0.30550637770895 0.86264542417569 
C17   C     0.90695378739125 0.63041220708525 0.09328465061082 
C18   C     0.16904657421042 0.52806655992505 0.91168444457717 
C19   C     0.97373793657137 0.00537174481281 0.96762735381421 
C20   C     0.92868199611478 0.05545849553453 0.92635412820115 
C21   C     0.05792838375214 0.04227898515157 0.05062806686095 
C22   C     0.88557820574024 0.24689554386160 0.85965317388759 
C23   C     0.09247735622925 0.12811659304087 0.08944399022701 
C24   C     0.88628554664910 0.38077216322065 0.84178284024041 
C25   C     0.10742233087384 0.35465792421164 0.14280535055056 
C26   C     0.93913778377567 0.60621425799328 0.83945103817182 
C27   C     0.08929399997498 0.48731890261982 0.15143031946044 
C28   C     0.98978804789905 0.68870769722171 0.85368442429358 
C29   C     0.80300539745937 0.45696349104317 0.06731443337453 
C30   C     0.20864919756162 0.25615023142533 0.87962432655307 
C31   C     0.01122438926870 0.67395708744054 0.13804229689802 
C32   C     0.10202838803855 0.72065904270580 0.88907097723629 
C33   C     0.84812530000926 0.26681109296822 0.12985735157396 
C34   C     0.11638844562960 0.22379325361438 0.81172304039607 
C35   C     0.95410452664089 0.72087983411369 0.11596744434024 
C36   C     0.15805378377401 0.66920037362043 0.91185886902272 
C37   C     0.84643602676640 0.68234921606320 0.07355300346959 
C38   C     0.23110750158134 0.47563345694327 0.92830454501890 
C39   C     0.79891223410451 0.59745651098773 0.05475704979311 
C40   C     0.24837010634694 0.34294801288576 0.91691917282710 
C41   C     0.79047674189856 0.18674990390241 0.12026444039322 
C42   C     0.14330549901319 0.09745754470147 0.78454274140696 
C43   C     0.74727173677401 0.37342914016356 0.05684195232537 
C44   C     0.23338420822737 0.12448425642970 0.85410691632473 
C45   C     0.74233785675129 0.24163757332726 0.07986242692334 
C46   C     0.20134491917904 0.04532636858883 0.80756742889480 
C47   C     0.88754342065678 0.21182070614007 0.18073370371430 
C48   C     0.77913351944658 0.05517462920043 0.15458530522997 
C49   C     0.87438728092225 0.08436944674219 0.21551940510150 
C50   C     0.82045189613721 0.00368173324884 0.20125352316362 
H1    H     0.97834296451153 0.89792066438422 0.97571512258448 
H2    H     0.89467663980684 0.98885194082500 0.90346893011472 
H3    H     0.06646762892711 0.93440695081456 0.05083383579109 
H4    H     0.85107915686826 0.17834617600031 0.83908362131829 
H5    H     0.13113999101057 0.09091822668615 0.11916694461248 
H6    H     0.85135251293203 0.42172253730344 0.80801090653772 
H7    H     0.14719973345373 0.31398453851251 0.16970700560273 
H8    H     0.89819864123517 0.64553323906155 0.81423998617590 
H9    H     0.11574822260857 0.55626799837629 0.18316365783428 
H10   H     0.98923939473250 0.79605223915744 0.84186592841135 
H11   H     0.04362190421547 0.74111353022443 0.16302305048678 
H12   H     0.09731405988012 0.82825571538641 0.88097283211017 
H13   H     0.07204968048281 0.26208792453064 0.79247708417507 
H14   H     0.94089880569870 0.82718963290875 0.12029162223084 
H15   H     0.19760028846140 0.73508697302689 0.92506443445433 
H16   H     0.84017046436580 0.79072737885045 0.07181106565178 
H17   H     0.26459139610194 0.54469804953519 0.95020401575189 
H18   H     0.75464206291888 0.63589230037504 0.03500112323852 
H19   H     0.29550080498460 0.30346345702342 0.93033125106622 
H20   H     0.11946985157351 0.03843172519385 0.74469449676041 
H21   H     0.70826701193510 0.41874090199818 0.03046251880599 
H22   H     0.27971747508571 0.08802852877618 0.87039790668089 
H23   H     0.69960453839855 0.17850417305204 0.07192534794732 
H24   H     0.22199961245480 0.94526588398620 0.78650126750356 
H25   H     0.92920050753054 0.27138013380580 0.19330376857849 
H26   H     0.73595250319168 0.99582915382629 0.14441713001226 
H27   H     0.90640882127429 0.04653934206014 0.25396020885509 
H28   H     0.81019625036248 0.90295424079109 0.22819984820255 
