data_stdin
_audit_creation_method 'critic2'
_audit_creation_date 2023-8-11
_chemical_formula_sum 'C50 H28'
_cell_formula_units_Z 2
_cell_length_a        15.5807207521
_cell_length_b        11.1181493812
_cell_length_c        10.2629279424
_cell_angle_alpha       117.2163
_cell_angle_beta        90.5094
_cell_angle_gamma        79.1446
_cell_volume          1546.628695
_space_group_crystal_system triclinic
_space_group_IT_number 2
_space_group_name_H-M_alt 'P-1'
_space_group_name_Hall '-P 1'
loop_
_symmetry_equiv_pos_site_id
_symmetry_equiv_pos_as_xyz
 1 'x,y,z'
 2 '-x,-y,-z'
loop_
_atom_site_label
_atom_site_type_symbol
_atom_site_fract_x
_atom_site_fract_y
_atom_site_fract_z
C1    C     0.26245738701032 0.39825880114295 0.65596921479844 
C2    C     0.19535678781671 0.31915431551030 0.63425566830841 
C3    C     0.31640079713945 0.43401215013952 0.77755777231395 
C4    C     0.14672185702908 0.31713019224387 0.75213536631090 
C5    C     0.33877004293763 0.35302522639635 0.85475477147160 
C6    C     0.13453942798296 0.42504074861572 0.90306534132760 
C7    C     0.33747936443262 0.20742660602317 0.79407790701400 
C8    C     0.13687725628977 0.56832262717700 0.94984045303032 
C9    C     0.27577651045141 0.44436541756369 0.55096335331001 
C10   C     0.17190220292428 0.24532656582067 0.48862171177825 
C11   C     0.35322066110721 0.55299905271373 0.81956369742362 
C12   C     0.10512681654626 0.20368949028973 0.71627845555572 
C13   C     0.36574756664613 0.42089422985641 0.99922620630523 
C14   C     0.11475998491671 0.38792763843501 0.01357460810297 
C15   C     0.34749680551937 0.10918415871815 0.63912636649852 
C16   C     0.11776816724885 0.63721849950680 0.85887261681060 
C17   C     0.32776370391578 0.15595686968995 0.89630399566588 
C18   C     0.14960179721929 0.65199254720466 0.09955641489465 
C19   C     0.24198857948478 0.38208042429529 0.41129912915215 
C20   C     0.19779501375266 0.27755658644106 0.37737190136131 
C21   C     0.32265148829572 0.55230709055017 0.58711793783966 
C22   C     0.12058842722682 0.14342478297819 0.45732821231150 
C23   C     0.35424578277848 0.61194224501373 0.72219109459985 
C24   C     0.09406724137281 0.11654588764558 0.56633753399833 
C25   C     0.39031439844876 0.60978658124943 0.95698788809824 
C26   C     0.07415936670238 0.17926887230874 0.83022355541626 
C27   C     0.39023976598733 0.55112267420064 0.04856180957610 
C28   C     0.08611955030798 0.26215959725593 0.97354788586726 
C29   C     0.31524763405975 0.98610181131561 0.59601812384138 
C30   C     0.13449506537462 0.77301159056452 0.90897576817987 
C31   C     0.36971751970401 0.35686328988054 0.09229264575669 
C32   C     0.12072656395674 0.47878543663425 0.16421975151187 
C33   C     0.39438028441134 0.12203210647117 0.52610401162462 
C34   C     0.07440423489907 0.58324495827768 0.72844679653040 
C35   C     0.34437094027880 0.23327946866361 0.04567395361361 
C36   C     0.14367339678004 0.60306538168732 0.20468286988416 
C37   C     0.30267766946335 0.02652269184063 0.84811978918847 
C38   C     0.16447121242128 0.78806470591464 0.14690785546550 
C39   C     0.28993299809821 0.94935797635632 0.70366259307199 
C40   C     0.16196440896335 0.84402113694774 0.05280670645484 
C41   C     0.38834801922805 0.03037389760775 0.37459328274871 
C42   C     0.05634164210866 0.65224097119998 0.64521619980503 
C43   C     0.31171393497109 0.89550062170184 0.44395778292924 
C44   C     0.11792128775221 0.83999261782287 0.81993664225377 
C45   C     0.34325966755469 0.92016579867381 0.33684908125762 
C46   C     0.08092198762482 0.77993287078133 0.68847049608037 
C47   C     0.45176939470920 0.21472760273118 0.55724354954067 
C48   C     0.43095801654242 0.04544104894821 0.26332834594514 
C49   C     0.49283517962245 0.22743372197930 0.44679701649009 
C50   C     0.48070337196781 0.14475258387329 0.29835326564207 
H1    H     0.25476820749186 0.41555339678190 0.33025728515321 
H2    H     0.17766190219034 0.22245161881288 0.26696304054079 
H3    H     0.32962374331438 0.58982745359428 0.50727700353210 
H4    H     0.10529451846813 0.08498623660399 0.34448906059910 
H5    H     0.38380359148528 0.70182663988320 0.75512785204992 
H6    H     0.06117663688139 0.03116097364596 0.54124945726616 
H7    H     0.41745433127747 0.70176838691379 0.98841539944228 
H8    H     0.04259838182679 0.09197088473262 0.80094521197053 
H9    H     0.41355280949580 0.59888813131972 0.15753971455030 
H10   H     0.06800058204333 0.23893991439653 0.06052070069204 
H11   H     0.39009667135341 0.41051478824705 0.20280027251345 
H12   H     0.10810972260573 0.44603609383594 0.24593716786371 
H13   H     0.05293104366556 0.48683760598829 0.69528011711403 
H14   H     0.34024876901007 0.18952845096134 0.12057707692098 
H15   H     0.15210190878398 0.67016508305360 0.31931715478524 
H16   H     0.29159126088371 0.99235520003403 0.92951141203838 
H17   H     0.17832828359055 0.84652081744587 0.26059095622182 
H18   H     0.26528698464190 0.85470063350340 0.66799587863443 
H19   H     0.17575803512249 0.94659428761596 0.08859437606917 
H20   H     0.02204629807228 0.60850771904677 0.54653965305369 
H21   H     0.28303683151585 0.80523431211587 0.41523096002943 
H22   H     0.13336471862902 0.94181686147513 0.85903270444919 
H23   H     0.33773061855621 0.85260146120896 0.22135024934845 
H24   H     0.06810212022608 0.83213235161859 0.62055652091001 
H25   H     0.46480266934896 0.27577443500818 0.67034632152227 
H26   H     0.42528308628482 0.97472379803380 0.14861702574160 
H27   H     0.53578608020058 0.30093676692486 0.47528764020970 
H28   H     0.51284745135693 0.15542866435821 0.21161844044000 
