data_stdin
_audit_creation_method 'critic2'
_audit_creation_date 2023-8-11
_chemical_formula_sum 'C50 H28'
_cell_formula_units_Z 8
_cell_length_a        19.6016085532
_cell_length_b         9.9518083416
_cell_length_c        34.0991362771
_cell_angle_alpha        90.0001
_cell_angle_beta       115.8804
_cell_angle_gamma        89.9995
_cell_volume          5984.642510
_space_group_crystal_system monoclinic
_space_group_IT_number 15
_space_group_name_H-M_alt 'C2/c'
_space_group_name_Hall '-C 2yc'
loop_
_symmetry_equiv_pos_site_id
_symmetry_equiv_pos_as_xyz
 1 'x,y,z'
 2 '-x,-y,-z'
 3 '-1/2-x,-1/2+y,-1/2-z'
 4 '-1/2+x,-1/2-y,-1/2+z'
 5 '-1/2+x,-1/2+y,z'
 6 '-1/2-x,-1/2-y,-z'
 7 '-x,y,-1/2-z'
 8 'x,-y,-1/2+z'
loop_
_atom_site_label
_atom_site_type_symbol
_atom_site_fract_x
_atom_site_fract_y
_atom_site_fract_z
C1    C     0.40359695709110 0.99282671272071 0.62154506881963 
C2    C     0.47485524017264 0.04290894256283 0.65423629572217 
C3    C     0.34335984639427 0.07686744221782 0.59181916723699 
C4    C     0.48404104261641 0.17205031072007 0.67534476257226 
C5    C     0.35508683900247 0.20680299868961 0.57676468828227 
C6    C     0.42315476111818 0.24916249275346 0.67788005855672 
C7    C     0.42533122101973 0.25043067672573 0.57636279847312 
C8    C     0.35280537142246 0.19573733184523 0.67610816014815 
C9    C     0.39192085452435 0.85154701067026 0.61874480441081 
C10   C     0.53866513575343 0.95542327624772 0.66875051550735 
C11   C     0.26817860121218 0.02504200045443 0.57421263424591 
C12   C     0.55911083456089 0.22490401183598 0.69666304388336 
C13   C     0.29195273614299 0.29601803615964 0.55966412846972 
C14   C     0.43550187887462 0.39046390810655 0.68484367697001 
C15   C     0.48360893316662 0.16311470456181 0.57505512992627 
C16   C     0.34191332708122 0.05931360480556 0.68782458709632 
C17   C     0.43677293137712 0.39194352472191 0.57546230375175 
C18   C     0.29149916145450 0.28692245324515 0.66648986536656 
C19   C     0.45548305480309 0.76401454002902 0.63826212199131 
C20   C     0.52717529747565 0.81533729066120 0.65946536416809 
C21   C     0.31683666731040 0.79975270958850 0.59676775837767 
C22   C     0.61264655190067 0.00696139004698 0.69452379248247 
C23   C     0.25649154103256 0.88530559855469 0.57799551651547 
C24   C     0.62265287104948 0.13975087567764 0.70568046330206 
C25   C     0.20554695223092 0.11243968192460 0.55182305769739 
C26   C     0.57076203896451 0.36213355394673 0.70961028715969 
C27   C     0.21734879404299 0.24584724063525 0.54758066440415 
C28   C     0.51002735730694 0.44459846869445 0.70041627081025 
C29   C     0.55775666433679 0.21724148478229 0.58909903690437 
C30   C     0.26765366773768 0.01511332353596 0.68037832868845 
C31   C     0.30328244954235 0.43403556451529 0.55339877220223 
C32   C     0.37403717346618 0.47814802248222 0.67798053638093 
C33   C     0.47048397379500 0.02911074381402 0.55624319934537 
C34   C     0.40232644919107 0.96935983161396 0.71039146668858 
C35   C     0.37448634725090 0.48189906991224 0.56389951823874 
C36   C     0.30289230499524 0.42811634839259 0.66613008557702 
C37   C     0.51026823093412 0.44367637488257 0.58544307618628 
C38   C     0.21813391786524 0.23916280576746 0.65910786325016 
C39   C     0.57010917936698 0.35821525893541 0.59530098664074 
C40   C     0.20563129744351 0.10702221935019 0.66418868120300 
C41   C     0.53383784039920 0.94718296003711 0.56127249222514 
C42   C     0.39045688489053 0.84160959075771 0.72207312784304 
C43   C     0.61983171718269 0.13204190163099 0.59454126533123 
C44   C     0.25643685780737 0.88239177620143 0.69133834394459 
C45   C     0.60876592127380 0.00026136399897 0.58249087518810 
C46   C     0.31666337763815 0.79557539867131 0.71157810871931 
C47   C     0.39740281395618 0.97763907269567 0.52956650546024 
C48   C     0.52164358272351 0.81634938548929 0.54317656242235 
C49   C     0.38683255291619 0.85072956676848 0.51143480671002 
C50   C     0.44936623564299 0.76768216767913 0.51880391302455 
H1    H     0.44613801835351 0.65602427119156 0.63463190234223 
H2    H     0.57640208769946 0.74922921124137 0.67203459298968 
H3    H     0.30852147767833 0.69153977563469 0.59687592644618 
H4    H     0.66081826785838 0.93872927201704 0.70534880396638 
H5    H     0.19854720865792 0.84751051328438 0.56382078517569 
H6    H     0.67925100490928 0.18078097231117 0.72432168021900 
H7    H     0.14835220186465 0.07126991132926 0.53889049432813 
H8    H     0.62856548326000 0.40018205910562 0.72594165787143 
H9    H     0.16978745809934 0.31458892581936 0.53236826559011 
H10   H     0.51772627901797 0.55187151737187 0.70732695932380 
H11   H     0.25445927444004 0.50094895029169 0.54127976581716 
H12   H     0.38472408053767 0.58586375783957 0.68180661144810 
H13   H     0.45983572811203 0.00246675041672 0.71948804523106 
H14   H     0.38431586944933 0.58858597767265 0.56142951036294 
H15   H     0.25489236621148 0.49483047607517 0.65912815251312 
H16   H     0.51773152833804 0.55231390663950 0.58600159212736 
H17   H     0.17212983242429 0.31188689335115 0.64922412416521 
H18   H     0.62726840595192 0.39666102173005 0.60522341055323 
H19   H     0.14939760587642 0.07093439584820 0.65814006192821 
H20   H     0.43893418688773 0.77706180067342 0.74016680508558 
H21   H     0.67643031517845 0.17603874013124 0.60811231321575 
H22   H     0.19892501600645 0.85085930101759 0.68399548941512 
H23   H     0.65630803307065 0.93597125362628 0.58654814124036 
H24   H     0.30743166498418 0.69409623108266 0.72027656539050 
H25   H     0.34816558681484 0.03974826188658 0.52287968790042 
H26   H     0.57093573240618 0.75533009030055 0.54829444351987 
H27   H     0.32950281639723 0.81513675281678 0.49128685152876 
H28   H     0.44106355710256 0.66757146702262 0.50454432572070 
