data_stdin
_audit_creation_method 'critic2'
_audit_creation_date 2023-8-11
_chemical_formula_sum 'C50 H28'
_cell_formula_units_Z 8
_cell_length_a        19.6011358729
_cell_length_b         9.9567168682
_cell_length_c        31.8514543409
_cell_angle_alpha        89.9997
_cell_angle_beta        75.4881
_cell_angle_gamma        90.0004
_cell_volume          6017.900480
_space_group_crystal_system monoclinic
_space_group_IT_number 15
_space_group_name_H-M_alt 'C2/c'
_space_group_name_Hall '-C 2yc'
loop_
_symmetry_equiv_pos_site_id
_symmetry_equiv_pos_as_xyz
 1 'x,y,z'
 2 '-1/2-x,-1/2-y,-z'
 3 '-x,y,-1/2-z'
 4 'x,-y,-1/2+z'
 5 '-1/2+x,-1/2+y,z'
 6 '-x,-y,-z'
 7 '-1/2-x,-1/2+y,-1/2-z'
 8 '-1/2+x,-1/2-y,-1/2+z'
loop_
_atom_site_label
_atom_site_type_symbol
_atom_site_fract_x
_atom_site_fract_y
_atom_site_fract_z
C1    C     0.14812778152920 0.03953370328296 0.12587197728985 
C2    C     0.20839611361745 0.98976675725176 0.09387037364886 
C3    C     0.09791922095057 0.95531020966292 0.15509686841576 
C4    C     0.21112925532844 0.85938692552612 0.07361200092154 
C5    C     0.11448615505889 0.82579590050922 0.17063475276699 
C6    C     0.15000429449498 0.78161277141914 0.07050215801698 
C7    C     0.18469442715396 0.78207142510278 0.17135228415903 
C8    C     0.08117905101336 0.83561813566102 0.07064649816928 
C9    C     0.13731948398135 0.18070553383084 0.12857945234793 
C10   C     0.26692973024719 0.07759985075106 0.07950104029178 
C11   C     0.02867835328606 0.00681312153437 0.17152973550904 
C12   C     0.27893959368791 0.80593054599856 0.05380415007025 
C13   C     0.05725379266938 0.73698871585042 0.18775383029450 
C14   C     0.15959939455249 0.64005964046368 0.06459850589733 
C15   C     0.24344551029307 0.86930321214238 0.17246236941440 
C16   C     0.06808993328307 0.97087145048493 0.05724096823396 
C17   C     0.19642117685338 0.64080906240998 0.17270444420725 
C18   C     0.02258973510743 0.74618238227481 0.08050703110508 
C19   C     0.19424563685617 0.26832728622346 0.10985889973880 
C20   C     0.25864814061460 0.21749817969511 0.08895619986876 
C21   C     0.06969714191445 0.23238798239800 0.14983547139644 
C22   C     0.33219906528845 0.02546247566547 0.05448777181537 
C23   C     0.01572494804928 0.14654924228833 0.16766640855320 
C24   C     0.33897562456412 0.89185413901010 0.04451018669038 
C25   C     0.97344550571849 0.91918459799502 0.19293290040258 
C26   C     0.28635581823403 0.66765172117938 0.04245493882262 
C27   C     0.98680644210508 0.78653647731175 0.19840351979941 
C28   C     0.22876844754098 0.58541718335946 0.05095301293631 
C29   C     0.31259545009501 0.81529593288575 0.15833104071648 
C30   C     0.99701303049679 0.01743411406759 0.06403761528002 
C31   C     0.07060833629602 0.59963653735399 0.19523746532875 
C32   C     0.10018949541967 0.55344660129303 0.07064762515348 
C33   C     0.23666154506213 0.00300742443070 0.19134343946140 
C34   C     0.12190484279970 0.05755720840981 0.03417353402868 
C35   C     0.13807950956752 0.55140587605942 0.18507954199598 
C36   C     0.03341454970163 0.60486987660643 0.08150041048856 
C37   C     0.26640811188363 0.58916740404773 0.16211552425020 
C38   C     0.95243081311092 0.79645233434588 0.08737745902222 
C39   C     0.32269623811834 0.67453884274030 0.15166733470197 
C40   C     0.93973398616230 0.92856487388271 0.08109420736357 
C41   C     0.29800711397791 0.08573846239133 0.18615372405738 
C42   C     0.10746810192734 0.18500242190912 0.02152251297400 
C43   C     0.37265325225609 0.90064963221273 0.15333777485278 
C44   C     0.98366766800241 0.14961892272312 0.05186079179045 
C45   C     0.36560982171805 0.03256134879742 0.16528712570121 
C46   C     0.03777824102674 0.23335526247516 0.03121909830091 
C47   C     0.17297551379856 0.05300182648623 0.21835453230595 
C48   C     0.29164543839985 0.21715096460913 0.20373881753501 
C49   C     0.16852760448653 0.18034618146681 0.23609686216947 
C50   C     0.22785864951141 0.26512693442858 0.22799285326763 
H1    H     0.18617332405684 0.37613431662621 0.11394213979348 
H2    H     0.30355933211670 0.28387242862055 0.07718978230551 
H3    H     0.06141011319266 0.34059356840672 0.14992652539017 
H4    H     0.37689789188850 0.09327800215375 0.04445962244972 
H5    H     0.96261457751892 0.18414469261192 0.18121365979908 
H6    H     0.38944249740137 0.85051316044776 0.02686827546821 
H7    H     0.92036443361453 0.95981291254926 0.20388868758573 
H8    H     0.33874838379951 0.62836821116954 0.02788674301073 
H9    H     0.94454828767674 0.71788932328191 0.21352846093984 
H10   H     0.23422816692865 0.47784431954234 0.04481923977962 
H11   H     0.02583089001220 0.53342535246614 0.20776345244413 
H12   H     0.10901686537352 0.44561247653732 0.06700472202564 
H13   H     0.17603739984887 0.02301179365207 0.02581798226287 
H14   H     0.14864919218031 0.44494972457544 0.18811302355791 
H15   H     0.98758791222208 0.53890116046237 0.08816314420167 
H16   H     0.27373889588152 0.48063868239793 0.16162476652217 
H17   H     0.90907057854811 0.72579053919667 0.09775776601887 
H18   H     0.37628150032347 0.63608129495490 0.14115690878327 
H19   H     0.88606522026412 0.96649559281379 0.08657641214373 
H20   H     0.15072978460546 0.24806069345738 0.00410480246160 
H21   H     0.42454076167542 0.85723665729527 0.13965281818935 
H22   H     0.92915046268396 0.18308149917854 0.05869914920195 
H23   H     0.41163908057509 0.09722472880255 0.16094693899832 
H24   H     0.02662331696138 0.33449951183591 0.02168729561873 
H25   H     0.12658299624360 0.98943893367394 0.22559290226642 
H26   H     0.33874618280013 0.27935153434230 0.19835190789812 
H27   H     0.11856327189391 0.21541822525568 0.25651539874910 
H28   H     0.22390864961004 0.36567551140849 0.24177997211236 
