data_stdin
_audit_creation_method 'critic2'
_audit_creation_date 2023-8-11
_chemical_formula_sum 'C50 H28'
_cell_formula_units_Z 2
_cell_length_a        17.2944113464
_cell_length_b         9.2906597708
_cell_length_c        10.7641792168
_cell_angle_alpha       113.7019
_cell_angle_beta        83.5531
_cell_angle_gamma        87.1538
_cell_volume          1565.084365
_space_group_crystal_system triclinic
_space_group_IT_number 2
_space_group_name_H-M_alt 'P-1'
_space_group_name_Hall '-P 1'
loop_
_symmetry_equiv_pos_site_id
_symmetry_equiv_pos_as_xyz
 1 'x,y,z'
 2 '-x,-y,-z'
loop_
_atom_site_label
_atom_site_type_symbol
_atom_site_fract_x
_atom_site_fract_y
_atom_site_fract_z
C1    C     0.70512773056911 0.13762758623612 0.96219129967578 
C2    C     0.73507503217163 0.27498586183301 0.95198406917127 
C3    C     0.74397250919464 0.97936842551463 0.89165300167066 
C4    C     0.78641565735974 0.27017890066153 0.83458415185200 
C5    C     0.82781119510412 0.94198020298586 0.85441276458761 
C6    C     0.79256036242741 0.14618298602411 0.69789877646159 
C7    C     0.88451678135945 0.04513913185757 0.92084102022031 
C8    C     0.73120602712745 0.04889700450782 0.64365931225333 
C9    C     0.63303612106239 0.15931738583369 0.04816282738862 
C10   C     0.70987640421228 0.42500067256199 0.06133492025666 
C11   C     0.69705605257735 0.85155801668094 0.86450302243717 
C12   C     0.83234643716084 0.39828542067720 0.85389585511209 
C13   C     0.85614474504201 0.79124482616887 0.74792986851394 
C14   C     0.86355074770105 0.12300694817489 0.60781171081318 
C15   C     0.87073960371707 0.16894388388675 0.05858800748897 
C16   C     0.64807510385380 0.09849617838021 0.68909744448997 
C17   C     0.96109188683668 0.02018213228615 0.84610761931542 
C18   C     0.75275826739927 0.90325045659377 0.52735360616843 
C19   C     0.60349391084672 0.31367761816330 0.14721491765771 
C20   C     0.64408172954338 0.44044890351363 0.15995383706596 
C21   C     0.59195817872163 0.02623414073393 0.03541684450891 
C22   C     0.74978039200099 0.55825627452630 0.06884383025175 
C23   C     0.62007229098432 0.87907540343318 0.93793822204640 
C24   C     0.81250108829947 0.54239284756665 0.97320766606029 
C25   C     0.72899281260744 0.69720835351731 0.76872036327671 
C26   C     0.89666489692762 0.38202759308188 0.75266037895986 
C27   C     0.80444413052717 0.67127739123836 0.70473067003249 
C28   C     0.91541427957841 0.24328142717486 0.63865171073852 
C29   C     0.91956424323837 0.29384839239623 0.09020015963002 
C30   C     0.59283090754706 0.98610496133142 0.63931339614302 
C31   C     0.93634098879997 0.75979672993761 0.68872463425288 
C32   C     0.88112319522839 0.98182601670339 0.48581209663079 
C33   C     0.81525739565826 0.16737450641609 0.16962956568112 
C34   C     0.61750474009029 0.25802652786460 0.76878450120418 
C35   C     0.98594498628630 0.87476390384703 0.73066615586964 
C36   C     0.82943633619763 0.87024730154220 0.45204437826749 
C37   C     0.01228183148451 0.14112344372651 0.88720516715921 
C38   C     0.69627502348615 0.79353108281056 0.48081066039083 
C39   C     0.98864268332543 0.27995218218945 0.99892893873212 
C40   C     0.61962268940315 0.83049036323913 0.53887847231419 
C41   C     0.79871697534271 0.30614206666330 0.29541043978969 
C42   C     0.53789104588735 0.30193337450416 0.80768388935921 
C43   C     0.90219511157554 0.42960957621764 0.21733236845230 
C44   C     0.51175705077145 0.03301310580458 0.68293012295189 
C45   C     0.84223836030020 0.43803997986291 0.31469286094873 
C46   C     0.48442437162078 0.18785784128641 0.76792397805809 
C47   C     0.78010612551662 0.03103576613146 0.16515113389039 
C48   C     0.74147175314140 0.30937848303395 0.40176385166116 
C49   C     0.72582402318188 0.03614552586896 0.27169077715766 
C50   C     0.70408398285674 0.17763017026950 0.38956438181304 
H1    H     0.54981321239795 0.32730756045306 0.21627524843391 
H2    H     0.62473511330399 0.55637288134532 0.24204599632034 
H3    H     0.53653246375948 0.04419402647122 0.10099462076336 
H4    H     0.73109836023453 0.67165401751910 0.15477383294366 
H5    H     0.58588218859019 0.77905267030340 0.92090717387560 
H6    H     0.84582575682614 0.64177671172107 0.98277626467889 
H7    H     0.69164151047257 0.60134351419811 0.74596655957127 
H8    H     0.93157165861820 0.48080077766776 0.76993180561415 
H9    H     0.82803042170020 0.55516501068173 0.62701739053808 
H10   H     0.96793420743617 0.22551974650744 0.56590697836196 
H11   H     0.95679768939699 0.64392186815189 0.60703868195532 
H12   H     0.93706319572067 0.96360841768083 0.42136493277760 
H13   H     0.65738171022923 0.34869369339884 0.79837995579664 
H14   H     0.04645692524313 0.85406088744811 0.68151628475579 
H15   H     0.84382437186617 0.75971198141829 0.36119098931879 
H16   H     0.06927113232964 0.12195404396739 0.82528760203256 
H17   H     0.71606158984427 0.67889515106461 0.39709279598444 
H18   H     0.02448034419870 0.37813166133588 0.02479826608750 
H19   H     0.57696762683980 0.74564673240860 0.50398046732912 
H20   H     0.51644940847259 0.42574222035321 0.86856534769772 
H21   H     0.93840347604421 0.52676765276483 0.23498737453536 
H22   H     0.47083457106962 0.94505985936886 0.64525212063464 
H23   H     0.82904632956147 0.54238296194477 0.41105943689328 
H24   H     0.42196544432828 0.22197876174005 0.80169497058562 
H25   H     0.79622270522829 0.92005163923814 0.07608647476792 
H26   H     0.72807765188073 0.41834053676381 0.49450514739323 
H27   H     0.69958609133018 0.92970609324556 0.26499164609587 
H28   H     0.66038903820665 0.18106790884707 0.47199994683631 
